Program Version,EnergyPlus, Version 8.8.0-7c3bbe4830, YMD=2019.09.19 10:40,IDD_Version 8.8.0
Var Type (reported time step),Var Report Type,Variable Name [Units]
Zone,Meter,EnergyTransfer:Facility [J]
Zone,Meter,EnergyTransfer:Building [J]
Zone,Meter,EnergyTransfer:Zone:BLOCK FIRST_A STOREY 0 [J]
Zone,Meter,Heating:EnergyTransfer [J]
Zone,Meter,Heating:EnergyTransfer:Zone:BLOCK FIRST_A STOREY 0 [J]
Zone,Meter,Cooling:EnergyTransfer [J]
Zone,Meter,Cooling:EnergyTransfer:Zone:BLOCK FIRST_A STOREY 0 [J]
Zone,Meter,EnergyTransfer:Zone:BLOCK GROUND_A STOREY 0 [J]
Zone,Meter,Heating:EnergyTransfer:Zone:BLOCK GROUND_A STOREY 0 [J]
Zone,Meter,Cooling:EnergyTransfer:Zone:BLOCK GROUND_A STOREY 0 [J]
Zone,Meter,EnergyTransfer:Zone:BLOCK GROUND_B STOREY 0 [J]
Zone,Meter,Heating:EnergyTransfer:Zone:BLOCK GROUND_B STOREY 0 [J]
Zone,Meter,Cooling:EnergyTransfer:Zone:BLOCK GROUND_B STOREY 0 [J]
Zone,Meter,Carbon Equivalent:Facility [kg]
Zone,Meter,CarbonEquivalentEmissions:Carbon Equivalent [kg]
