Program Version,EnergyPlus, Version 8.8.0-7c3bbe4830, YMD=2019.09.19 10:40,IDD_Version 8.8.0
   ** Warning ** Weather file location will be used rather than entered (IDF) Location object.
   **   ~~~   ** ..Location object=DENVER_STAPLETON_CO_USA_WMO_724690
   **   ~~~   ** ..Weather File Location=Barcelona - ESP SWEC WMO#=081810
   **   ~~~   ** ..due to location differences, Latitude difference=[1.51] degrees, Longitude difference=[106.94] degrees.
   **   ~~~   ** ..Time Zone difference=[8.0] hour(s), Elevation difference=[99.63] percent, [1605.00] meters.
   ** Warning ** SetUpDesignDay: Entered DesignDay Barometric Pressure=83411 differs by more than 10% from Standard Barometric Pressure=101253.
   **   ~~~   ** ...occurs in DesignDay=DENVER_STAPLETON ANN HTG 99.6% CONDNS DB, Standard Pressure (based on elevation) will be used.
   ** Warning ** GetHTSurfaceData: Surfaces with interface to Ground found but no "Ground Temperatures" were input.
   **   ~~~   ** Found first in surface=BLOCK GROUND_A STOREY 0 FLOOR 0001
   **   ~~~   ** Defaults, constant throughout the year of (18.0) will be used.
   ** Warning ** CheckUsedConstructions: There are 2 nominally unused constructions in input.
   **   ~~~   ** For explicit details on each unused construction, use Output:Diagnostics,DisplayExtraWarnings;
   ** Warning ** SetUpDesignDay: Entered DesignDay Barometric Pressure=83411 differs by more than 10% from Standard Barometric Pressure=101253.
   **   ~~~   ** ...occurs in DesignDay=DENVER_STAPLETON ANN CLG .4% CONDNS DB=>MWB, Standard Pressure (based on elevation) will be used.
   ************* Testing Individual Branch Integrity
   ************* All Branches passed integrity testing
   ************* Testing Individual Supply Air Path Integrity
   ************* All Supply Air Paths passed integrity testing
   ************* Testing Individual Return Air Path Integrity
   ************* All Return Air Paths passed integrity testing
   ************* No node connection errors were found.
   ************* Beginning Simulation
   ************* Simulation Error Summary *************
   *************
   ************* ===== Final Error Summary =====
   ************* The following error categories occurred.  Consider correcting or noting.
   ************* Nominally Unused Constructions
   ************* ..The nominally unused constructions warning is provided to alert you to potential conditions that can cause
   ************* ..extra time during simulation. Each construction is calculated by the algorithm indicated in the HeatBalanceAlgorithm
   ************* ..object. You may remove the constructions indicated (when you use the DisplayExtraWarnings option).
   *************
   ************* EnergyPlus Warmup Error Summary. During Warmup: 0 Warning; 0 Severe Errors.
   ************* EnergyPlus Sizing Error Summary. During Sizing: 0 Warning; 0 Severe Errors.
   ************* EnergyPlus Completed Successfully-- 5 Warning; 0 Severe Errors; Elapsed Time=00hr 00min  1.07sec
