Program Version,EnergyPlus, Version 8.8.0-7c3bbe4830, YMD=2019.09.19 10:42
! <Version>, Version ID
 Version, 8.8
! <Timesteps per Hour>, #TimeSteps, Minutes per TimeStep {minutes}
 Timesteps per Hour,  4, 15
! <System Convergence Limits>, Minimum System TimeStep {minutes}, Max HVAC Iterations, Minimum Plant Iterations, Maximum Plant Iterations
 System Convergence Limits, 1, 20, 2, 8
! <Simulation Control>, Do Zone Sizing, Do System Sizing, Do Plant Sizing, Do Design Days, Do Weather Simulation, Do HVAC Sizing Simulation
 Simulation Control, No, No, No, Yes, No, No
! <Output Reporting Tolerances>, Tolerance for Time Heating Setpoint Not Met, Tolerance for Zone Cooling Setpoint Not Met Time
 Output Reporting Tolerances, 0.200, 0.200, 
! <Site:GroundTemperature:BuildingSurface>,Jan{C},Feb{C},Mar{C},Apr{C},May{C},Jun{C},Jul{C},Aug{C},Sep{C},Oct{C},Nov{C},Dec{C}
 Site:GroundTemperature:BuildingSurface,  18.00,  18.00,  18.00,  18.00,  18.00,  18.00,  18.00,  18.00,  18.00,  18.00,  18.00,  18.00
! <Site:GroundTemperature:FCfactorMethod>,Jan{C},Feb{C},Mar{C},Apr{C},May{C},Jun{C},Jul{C},Aug{C},Sep{C},Oct{C},Nov{C},Dec{C}
 Site:GroundTemperature:FCfactorMethod,   8.93,  10.14,  12.49,  14.72,  18.93,  21.15,  21.76,  20.63,  18.04,  14.80,  11.61,   9.50
! <Site:GroundTemperature:Shallow>,Jan{C},Feb{C},Mar{C},Apr{C},May{C},Jun{C},Jul{C},Aug{C},Sep{C},Oct{C},Nov{C},Dec{C}
 Site:GroundTemperature:Shallow,  13.00,  13.00,  13.00,  13.00,  13.00,  13.00,  13.00,  13.00,  13.00,  13.00,  13.00,  13.00
! <Site:GroundTemperature:Deep>,Jan{C},Feb{C},Mar{C},Apr{C},May{C},Jun{C},Jul{C},Aug{C},Sep{C},Oct{C},Nov{C},Dec{C}
 Site:GroundTemperature:Deep,  16.00,  16.00,  16.00,  16.00,  16.00,  16.00,  16.00,  16.00,  16.00,  16.00,  16.00,  16.00
! <Site:GroundReflectance>,Jan{dimensionless},Feb{dimensionless},Mar{dimensionless},Apr{dimensionless},May{dimensionless},Jun{dimensionless},Jul{dimensionless},Aug{dimensionless},Sep{dimensionless},Oct{dimensionless},Nov{dimensionless},Dec{dimensionless}
 Site:GroundReflectance,  0.20,  0.20,  0.20,  0.20,  0.20,  0.20,  0.20,  0.20,  0.20,  0.20,  0.20,  0.20
! <Site:GroundReflectance:SnowModifier>, Normal, Daylighting {dimensionless}
 Site:GroundReflectance:SnowModifier,   1.000,   1.000
! <Site:GroundReflectance:Snow>,Jan{dimensionless},Feb{dimensionless},Mar{dimensionless},Apr{dimensionless},May{dimensionless},Jun{dimensionless},Jul{dimensionless},Aug{dimensionless},Sep{dimensionless},Oct{dimensionless},Nov{dimensionless},Dec{dimensionless}
 Site:GroundReflectance:Snow,  0.20,  0.20,  0.20,  0.20,  0.20,  0.20,  0.20,  0.20,  0.20,  0.20,  0.20,  0.20
! <Site:GroundReflectance:Snow:Daylighting>,Jan{dimensionless},Feb{dimensionless},Mar{dimensionless},Apr{dimensionless},May{dimensionless},Jun{dimensionless},Jul{dimensionless},Aug{dimensionless},Sep{dimensionless},Oct{dimensionless},Nov{dimensionless},Dec{dimensionless}
 Site:GroundReflectance:Snow:Daylighting,  0.20,  0.20,  0.20,  0.20,  0.20,  0.20,  0.20,  0.20,  0.20,  0.20,  0.20,  0.20
! <Environment:Weather Station>,Wind Sensor Height Above Ground {m},Wind Speed Profile Exponent {},Wind Speed Profile Boundary Layer Thickness {m},Air Temperature Sensor Height Above Ground {m},Wind Speed Modifier Coefficient-Internal,Temperature Modifier Coefficient-Internal
Environment:Weather Station,10.000,0.140,270.000,1.500,1.586,9.750E-003
! <Site:Location>, Location Name, Latitude {N+/S- Deg}, Longitude {E+/W- Deg},  Time Zone Number {GMT+/-}, Elevation {m},  Standard Pressure at Elevation {Pa}, Standard RhoAir at Elevation
Site:Location,Barcelona - ESP SWEC WMO#=081810,41.28,2.07,1.00,6.00,101253,1.2035
! <Building Information>, Building Name,North Axis {deg},Terrain,  Loads Convergence Tolerance Value,Temperature Convergence Tolerance Value,  Solar Distribution,Maximum Number of Warmup Days,Minimum Number of Warmup Days
 Building Information,None,0.000,Suburbs,4.00000E-002,0.40000,FullInteriorAndExterior,25,6
! <Inside Convection Algorithm>, Algorithm {Simple | TARP | CeilingDiffuser | AdaptiveConvectionAlgorithm}
Inside Convection Algorithm,TARP
! <Outside Convection Algorithm>, Algorithm {SimpleCombined | TARP | MoWitt | DOE-2 | AdaptiveConvectionAlgorithm}
Outside Convection Algorithm,DOE-2
! <Sky Radiance Distribution>, Value {Anisotropic}
Sky Radiance Distribution,Anisotropic
! <Zone Air Solution Algorithm>, Value {ThirdOrderBackwardDifference | AnalyticalSolution | EulerMethod}
 Zone Air Solution Algorithm, ThirdOrderBackwardDifference
! <Zone Air Carbon Dioxide Balance Simulation>, Simulation {Yes/No}, Carbon Dioxide Concentration
 Zone Air Carbon Dioxide Balance Simulation, No,N/A
! <Zone Air Generic Contaminant Balance Simulation>, Simulation {Yes/No}, Generic Contaminant Concentration
 Zone Air Generic Contaminant Balance Simulation, No,N/A
! <Zone Air Mass Flow Balance Simulation>, Enforce Mass Balance, Adjust Zone Mixing, Adjust Zone Infiltration {AddInfiltration | AdjustInfiltration | None}, Infiltration Zones {MixingSourceZonesOnly | AllZones}
 Zone Air Mass Flow Balance Simulation, No,N/A,N/A,N/A
! <HVACSystemRootFindingAlgorithm>, Value {RegulaFalsi | Bisection | BisectionThenRegulaFalsi | RegulaFalsiThenBisection}
 HVACSystemRootFindingAlgorithm, RegulaFalsi
! <Environment:Site Atmospheric Variation>,Wind Speed Profile Exponent {},Wind Speed Profile Boundary Layer Thickness {m},Air Temperature Gradient Coefficient {K/m}
Environment:Site Atmospheric Variation,0.220,370.000,6.500000E-003
! <Surface Geometry>,Starting Corner,Vertex Input Direction,Coordinate System,Daylight Reference Point Coordinate System,Rectangular (Simple) Surface Coordinate System
 Surface Geometry,UpperLeftCorner,Counterclockwise,WorldCoordinateSystem,RelativeCoordinateSystem,RelativeToZoneOrigin
! <Surface Heat Transfer Algorithm>, Value {CTF - ConductionTransferFunction | EMPD - MoisturePenetrationDepthConductionTransferFunction | CondFD - ConductionFiniteDifference | HAMT - CombinedHeatAndMoistureFiniteElement} - Description,Inside Surface Max Temperature Limit{C}, Surface Convection Coefficient Lower Limit {W/m2-K}, Surface Convection Coefficient Upper Limit {W/m2-K}
Surface Heat Transfer Algorithm, CTF - ConductionTransferFunction,200,0.10,1000.0
! <Shading Summary>, Number of Fixed Detached Shades, Number of Building Detached Shades, Number of Attached Shades
 Shading Summary,2730,0,0
! <Zone Summary>, Number of Zones, Number of Zone Surfaces, Number of SubSurfaces
 Zone Summary,47,840,196
! <Zone Information>,Zone Name,North Axis {deg},Origin X-Coordinate {m},Origin Y-Coordinate {m},Origin Z-Coordinate {m},Centroid X-Coordinate {m},Centroid Y-Coordinate {m},Centroid Z-Coordinate {m},Type,Zone Multiplier,Zone List Multiplier,Minimum X {m},Maximum X {m},Minimum Y {m},Maximum Y {m},Minimum Z {m},Maximum Z {m},Ceiling Height {m},Volume {m3},Zone Inside Convection Algorithm {Simple-Detailed-CeilingDiffuser-TrombeWall},Zone Outside Convection Algorithm {Simple-Detailed-Tarp-MoWitt-DOE-2-BLAST}, Floor Area {m2},Exterior Gross Wall Area {m2},Exterior Net Wall Area {m2},Exterior Window Area {m2}, Number of Surfaces, Number of SubSurfaces, Number of Shading SubSurfaces,  Part of Total Building Area
 Zone Information, BLOCK LEVEL 9 UNIT 0 STOREY 0,0.0,0.00,0.00,0.00,-0.15,1.99,25.50,1,1,1,-5.89,7.85,-4.48,6.94,24.00,27.00,3.00,237.94,TARP,DOE-2,79.31,144.32,102.19,42.13,30,17,0,Yes
 Zone Information, BLOCK LEVEL 9 UNIT 1 STOREY 0,0.0,0.00,0.00,0.00,4.75,-2.76,25.50,1,1,1,-0.31,10.10,-8.69,2.48,24.00,27.00,3.00,128.02,TARP,DOE-2,42.67,79.67,60.91,18.76,14,6,0,Yes
 Zone Information, BLOCK LEVEL 9 UNIT 2 STOREY 0,0.0,0.00,0.00,0.00,0.79,1.51,25.50,1,1,1,8.62E-002,1.49,0.60,2.42,24.00,27.00,3.00,7.64,TARP,DOE-2,2.55,9.66,5.80,3.86,6,2,0,Yes
 Zone Information, BLOCK LEVEL 9 UNIT 3 STOREY 0,0.0,0.00,0.00,0.00,3.13,1.08,25.50,1,1,1,1.49,5.42,-1.17,2.54,24.00,27.00,3.00,28.77,TARP,DOE-2,9.59,2.76,1.66,1.10,10,2,0,Yes
 Zone Information, BLOCK LEVEL 8 UNIT 0 STOREY 0,0.0,0.00,0.00,0.00,-3.35,-0.90,22.50,1,1,1,-9.24,2.48,-6.66,3.56,21.00,24.00,3.00,180.82,TARP,DOE-2,60.27,58.22,34.95,23.26,17,6,0,Yes
 Zone Information, BLOCK LEVEL 8 UNIT 1 STOREY 0,0.0,0.00,0.00,0.00,-1.14,4.34,22.50,1,1,1,-9.23,7.85,1.03,6.94,21.00,24.00,3.00,196.87,TARP,DOE-2,65.62,92.96,74.36,18.60,19,6,0,Yes
 Zone Information, BLOCK LEVEL 8 UNIT 2 STOREY 0,0.0,0.00,0.00,0.00,2.78,-3.82,22.50,1,1,1,-4.79,10.10,-10.82,2.48,21.00,24.00,3.00,201.34,TARP,DOE-2,67.11,100.65,77.22,23.43,19,7,0,Yes
 Zone Information, BLOCK LEVEL 8 UNIT 3 STOREY 0,0.0,0.00,0.00,0.00,0.79,1.51,22.50,1,1,1,8.62E-002,1.49,0.60,2.42,21.00,24.00,3.00,7.64,TARP,DOE-2,2.55,9.66,5.80,3.86,6,2,0,Yes
 Zone Information, BLOCK LEVEL 8 UNIT 4 STOREY 0,0.0,0.00,0.00,0.00,3.13,1.08,22.50,1,1,1,1.49,5.42,-1.17,2.54,21.00,24.00,3.00,28.77,TARP,DOE-2,9.59,2.76,1.66,1.10,10,2,0,Yes
 Zone Information, BLOCK LEVEL 7 UNIT 0 STOREY 0,0.0,0.00,0.00,0.00,-3.35,-0.90,19.50,1,1,1,-9.24,2.48,-6.66,3.56,18.00,21.00,3.00,180.82,TARP,DOE-2,60.27,58.22,34.95,23.26,17,6,0,Yes
 Zone Information, BLOCK LEVEL 7 UNIT 1 STOREY 0,0.0,0.00,0.00,0.00,-1.14,4.34,19.50,1,1,1,-9.23,7.85,1.03,6.94,18.00,21.00,3.00,196.87,TARP,DOE-2,65.62,92.96,74.36,18.60,19,6,0,Yes
 Zone Information, BLOCK LEVEL 7 UNIT 2 STOREY 0,0.0,0.00,0.00,0.00,2.78,-3.82,19.50,1,1,1,-4.79,10.10,-10.82,2.48,18.00,21.00,3.00,201.34,TARP,DOE-2,67.11,100.65,77.22,23.43,19,7,0,Yes
 Zone Information, BLOCK LEVEL 7 UNIT 3 STOREY 0,0.0,0.00,0.00,0.00,0.79,1.51,19.50,1,1,1,8.62E-002,1.49,0.60,2.42,18.00,21.00,3.00,7.64,TARP,DOE-2,2.55,9.66,5.80,3.86,6,2,0,Yes
 Zone Information, BLOCK LEVEL 7 UNIT 4 STOREY 0,0.0,0.00,0.00,0.00,3.13,1.08,19.50,1,1,1,1.49,5.42,-1.17,2.54,18.00,21.00,3.00,28.77,TARP,DOE-2,9.59,2.76,1.66,1.10,10,2,0,Yes
 Zone Information, BLOCK LEVEL 6 UNIT 0 STOREY 0,0.0,0.00,0.00,0.00,-3.35,-0.90,16.50,1,1,1,-9.24,2.48,-6.66,3.56,15.00,18.00,3.00,180.82,TARP,DOE-2,60.27,58.22,34.95,23.26,17,6,0,Yes
 Zone Information, BLOCK LEVEL 6 UNIT 1 STOREY 0,0.0,0.00,0.00,0.00,-1.14,4.34,16.50,1,1,1,-9.23,7.85,1.03,6.94,15.00,18.00,3.00,196.87,TARP,DOE-2,65.62,92.96,74.36,18.60,19,6,0,Yes
 Zone Information, BLOCK LEVEL 6 UNIT 2 STOREY 0,0.0,0.00,0.00,0.00,2.78,-3.82,16.50,1,1,1,-4.79,10.10,-10.82,2.48,15.00,18.00,3.00,201.34,TARP,DOE-2,67.11,100.65,77.22,23.43,19,7,0,Yes
 Zone Information, BLOCK LEVEL 6 UNIT 3 STOREY 0,0.0,0.00,0.00,0.00,0.79,1.51,16.50,1,1,1,8.62E-002,1.49,0.60,2.42,15.00,18.00,3.00,7.64,TARP,DOE-2,2.55,9.66,5.80,3.86,6,2,0,Yes
 Zone Information, BLOCK LEVEL 6 UNIT 4 STOREY 0,0.0,0.00,0.00,0.00,3.13,1.08,16.50,1,1,1,1.49,5.42,-1.17,2.54,15.00,18.00,3.00,28.77,TARP,DOE-2,9.59,2.76,1.66,1.10,10,2,0,Yes
 Zone Information, BLOCK LEVEL 5 UNIT 0 STOREY 0,0.0,0.00,0.00,0.00,-3.35,-0.90,13.50,1,1,1,-9.24,2.48,-6.66,3.56,12.00,15.00,3.00,180.82,TARP,DOE-2,60.27,58.22,34.95,23.26,17,6,0,Yes
 Zone Information, BLOCK LEVEL 5 UNIT 1 STOREY 0,0.0,0.00,0.00,0.00,-1.14,4.34,13.50,1,1,1,-9.23,7.85,1.03,6.94,12.00,15.00,3.00,196.87,TARP,DOE-2,65.62,92.96,74.36,18.60,19,6,0,Yes
 Zone Information, BLOCK LEVEL 5 UNIT 2 STOREY 0,0.0,0.00,0.00,0.00,2.78,-3.82,13.50,1,1,1,-4.79,10.10,-10.82,2.48,12.00,15.00,3.00,201.34,TARP,DOE-2,67.11,100.65,77.22,23.43,19,7,0,Yes
 Zone Information, BLOCK LEVEL 5 UNIT 3 STOREY 0,0.0,0.00,0.00,0.00,0.79,1.51,13.50,1,1,1,8.62E-002,1.49,0.60,2.42,12.00,15.00,3.00,7.64,TARP,DOE-2,2.55,9.66,5.80,3.86,6,2,0,Yes
 Zone Information, BLOCK LEVEL 5 UNIT 4 STOREY 0,0.0,0.00,0.00,0.00,3.13,1.08,13.50,1,1,1,1.49,5.42,-1.17,2.54,12.00,15.00,3.00,28.77,TARP,DOE-2,9.59,2.76,1.66,1.10,10,2,0,Yes
 Zone Information, BLOCK LEVEL 4 UNIT 0 STOREY 0,0.0,0.00,0.00,0.00,-3.35,-0.90,10.50,1,1,1,-9.24,2.48,-6.66,3.56,9.00,12.00,3.00,180.82,TARP,DOE-2,60.27,58.22,34.95,23.26,17,6,0,Yes
 Zone Information, BLOCK LEVEL 4 UNIT 1 STOREY 0,0.0,0.00,0.00,0.00,-1.14,4.34,10.50,1,1,1,-9.23,7.85,1.03,6.94,9.00,12.00,3.00,196.87,TARP,DOE-2,65.62,92.96,74.36,18.60,19,6,0,Yes
 Zone Information, BLOCK LEVEL 4 UNIT 2 STOREY 0,0.0,0.00,0.00,0.00,2.78,-3.82,10.50,1,1,1,-4.79,10.10,-10.82,2.48,9.00,12.00,3.00,201.34,TARP,DOE-2,67.11,100.65,77.22,23.43,19,7,0,Yes
 Zone Information, BLOCK LEVEL 4 UNIT 3 STOREY 0,0.0,0.00,0.00,0.00,0.79,1.51,10.50,1,1,1,8.62E-002,1.49,0.60,2.42,9.00,12.00,3.00,7.64,TARP,DOE-2,2.55,9.66,5.80,3.86,6,2,0,Yes
 Zone Information, BLOCK LEVEL 4 UNIT 4 STOREY 0,0.0,0.00,0.00,0.00,3.13,1.08,10.50,1,1,1,1.49,5.42,-1.17,2.54,9.00,12.00,3.00,28.77,TARP,DOE-2,9.59,2.76,1.66,1.10,10,2,0,Yes
 Zone Information, BLOCK LEVEL 3 UNIT 0 STOREY 0,0.0,0.00,0.00,0.00,-3.35,-0.90,7.50,1,1,1,-9.24,2.48,-6.66,3.56,6.00,9.00,3.00,180.82,TARP,DOE-2,60.27,58.22,34.95,23.26,17,6,0,Yes
 Zone Information, BLOCK LEVEL 3 UNIT 1 STOREY 0,0.0,0.00,0.00,0.00,-1.14,4.34,7.50,1,1,1,-9.23,7.85,1.03,6.94,6.00,9.00,3.00,196.87,TARP,DOE-2,65.62,92.96,74.36,18.60,19,6,0,Yes
 Zone Information, BLOCK LEVEL 3 UNIT 2 STOREY 0,0.0,0.00,0.00,0.00,2.78,-3.82,7.50,1,1,1,-4.79,10.10,-10.82,2.48,6.00,9.00,3.00,201.34,TARP,DOE-2,67.11,100.65,77.22,23.43,19,7,0,Yes
 Zone Information, BLOCK LEVEL 3 UNIT 3 STOREY 0,0.0,0.00,0.00,0.00,0.79,1.51,7.50,1,1,1,8.62E-002,1.49,0.60,2.42,6.00,9.00,3.00,7.64,TARP,DOE-2,2.55,9.66,5.80,3.86,6,2,0,Yes
 Zone Information, BLOCK LEVEL 3 UNIT 4 STOREY 0,0.0,0.00,0.00,0.00,3.13,1.08,7.50,1,1,1,1.49,5.42,-1.17,2.54,6.00,9.00,3.00,28.77,TARP,DOE-2,9.59,2.76,1.66,1.10,10,2,0,Yes
 Zone Information, BLOCK LEVEL 2 UNIT 0 STOREY 0,0.0,0.00,0.00,0.00,-3.15,-0.81,4.50,1,1,1,-9.24,2.48,-6.66,3.56,3.00,6.00,3.00,180.85,TARP,DOE-2,60.28,62.42,37.48,24.94,16,6,0,Yes
 Zone Information, BLOCK LEVEL 2 UNIT 1 STOREY 0,0.0,0.00,0.00,0.00,-0.68,4.34,4.50,1,1,1,-9.23,7.85,1.03,6.94,3.00,6.00,3.00,196.91,TARP,DOE-2,65.64,92.93,75.34,17.60,19,5,0,Yes
 Zone Information, BLOCK LEVEL 2 UNIT 2 STOREY 0,0.0,0.00,0.00,0.00,2.91,-3.62,4.50,1,1,1,-4.79,10.10,-10.82,2.48,3.00,6.00,3.00,201.37,TARP,DOE-2,67.12,100.65,77.22,23.43,18,6,0,Yes
 Zone Information, BLOCK LEVEL 2 UNIT 3 STOREY 0,0.0,0.00,0.00,0.00,3.13,1.08,4.50,1,1,1,1.49,5.42,-1.17,2.54,3.00,6.00,3.00,28.77,TARP,DOE-2,9.59,8.22,4.93,3.28,10,3,0,Yes
 Zone Information, BLOCK LEVEL 1 UNIT 0 STOREY 0,0.0,0.00,0.00,0.00,-4.25,1.18,1.50,1,1,1,-9.24,2.09,-2.63,4.20,0.00,3.00,3.00,134.76,TARP,DOE-2,44.92,20.05,12.04,8.01,13,2,0,Yes
 Zone Information, BLOCK LEVEL 1 UNIT 1 STOREY 0,0.0,0.00,0.00,0.00,-2.35,4.99,1.50,1,1,1,-9.22,3.17,2.51,6.94,0.00,3.00,3.00,102.22,TARP,DOE-2,34.07,45.31,41.31,4.00,17,2,0,Yes
 Zone Information, BLOCK LEVEL 1 UNIT 2 STOREY 0,0.0,0.00,0.00,0.00,-1.90,-2.55,1.50,1,1,1,-8.72,2.93,-6.78,-5.64E-002,0.00,3.00,3.00,89.15,TARP,DOE-2,29.72,17.40,10.44,6.95,10,1,0,Yes
 Zone Information, BLOCK LEVEL 1 UNIT 3 STOREY 0,0.0,0.00,0.00,0.00,2.41,-3.96,1.50,1,1,1,-4.67,9.45,-10.82,1.98,0.00,3.00,3.00,219.49,TARP,DOE-2,73.16,72.25,60.17,12.08,14,2,0,Yes
 Zone Information, BLOCK LEVEL 1 UNIT 4 STOREY 0,0.0,0.00,0.00,0.00,-1.30,2.47,1.50,1,1,1,-2.69,8.67E-002,0.60,4.20,0.00,3.00,3.00,29.98,TARP,DOE-2,9.99,0.00,0.00,0.00,8,0,0,Yes
 Zone Information, BLOCK LEVEL 1 UNIT 5 STOREY 0,0.0,0.00,0.00,0.00,0.79,1.51,1.50,1,1,1,8.62E-002,1.49,0.60,2.42,0.00,3.00,3.00,7.64,TARP,DOE-2,2.55,0.00,0.00,0.00,6,0,0,Yes
 Zone Information, BLOCK LEVEL 1 UNIT 6 STOREY 0,0.0,0.00,0.00,0.00,0.73,2.97,1.34,1,1,1,8.67E-002,1.49,2.42,4.19,0.00,3.00,3.00,7.43,TARP,DOE-2,2.48,0.00,0.00,0.00,8,0,0,Yes
 Zone Information, BLOCK LEVEL 1 UNIT 7 STOREY 0,0.0,0.00,0.00,0.00,3.63,1.38,1.50,1,1,1,1.49,6.48,-0.97,2.54,0.00,3.00,3.00,32.25,TARP,DOE-2,10.75,1.53,0.92,0.61,11,2,0,Yes
 Zone Information, BLOCK LEVEL 1 UNIT 8 STOREY 0,0.0,0.00,0.00,0.00,4.87,4.42,1.50,1,1,1,3.16,6.96,2.46,6.13,0.00,3.00,3.00,35.92,TARP,DOE-2,11.97,20.86,17.04,3.82,8,2,0,Yes
! <Zone Internal Gains Nominal>,Zone Name, Floor Area {m2},# Occupants,Area per Occupant {m2/person},Occupant per Area {person/m2},Interior Lighting {W/m2},Electric Load {W/m2},Gas Load {W/m2},Other Load {W/m2},Hot Water Eq {W/m2},Steam Equipment {W/m2},Sum Loads per Area {W/m2},Outdoor Controlled Baseboard Heat
 Zone Internal Gains Nominal, BLOCK LEVEL 9 UNIT 0 STOREY 0,79.31,0.0,N/A,0.000,0.000,0.000,0.000,0.000,0.000,0.000,0.000,No
 Zone Internal Gains Nominal, BLOCK LEVEL 9 UNIT 1 STOREY 0,42.67,0.0,N/A,0.000,0.000,0.000,0.000,0.000,0.000,0.000,0.000,No
 Zone Internal Gains Nominal, BLOCK LEVEL 9 UNIT 2 STOREY 0,2.55,0.0,N/A,0.000,0.000,0.000,0.000,0.000,0.000,0.000,0.000,No
 Zone Internal Gains Nominal, BLOCK LEVEL 9 UNIT 3 STOREY 0,9.59,0.0,N/A,0.000,0.000,0.000,0.000,0.000,0.000,0.000,0.000,No
 Zone Internal Gains Nominal, BLOCK LEVEL 8 UNIT 0 STOREY 0,60.27,0.0,N/A,0.000,0.000,0.000,0.000,0.000,0.000,0.000,0.000,No
 Zone Internal Gains Nominal, BLOCK LEVEL 8 UNIT 1 STOREY 0,65.62,0.0,N/A,0.000,0.000,0.000,0.000,0.000,0.000,0.000,0.000,No
 Zone Internal Gains Nominal, BLOCK LEVEL 8 UNIT 2 STOREY 0,67.11,0.0,N/A,0.000,0.000,0.000,0.000,0.000,0.000,0.000,0.000,No
 Zone Internal Gains Nominal, BLOCK LEVEL 8 UNIT 3 STOREY 0,2.55,0.0,N/A,0.000,0.000,0.000,0.000,0.000,0.000,0.000,0.000,No
 Zone Internal Gains Nominal, BLOCK LEVEL 8 UNIT 4 STOREY 0,9.59,0.0,N/A,0.000,0.000,0.000,0.000,0.000,0.000,0.000,0.000,No
 Zone Internal Gains Nominal, BLOCK LEVEL 7 UNIT 0 STOREY 0,60.27,0.0,N/A,0.000,0.000,0.000,0.000,0.000,0.000,0.000,0.000,No
 Zone Internal Gains Nominal, BLOCK LEVEL 7 UNIT 1 STOREY 0,65.62,0.0,N/A,0.000,0.000,0.000,0.000,0.000,0.000,0.000,0.000,No
 Zone Internal Gains Nominal, BLOCK LEVEL 7 UNIT 2 STOREY 0,67.11,0.0,N/A,0.000,0.000,0.000,0.000,0.000,0.000,0.000,0.000,No
 Zone Internal Gains Nominal, BLOCK LEVEL 7 UNIT 3 STOREY 0,2.55,0.0,N/A,0.000,0.000,0.000,0.000,0.000,0.000,0.000,0.000,No
 Zone Internal Gains Nominal, BLOCK LEVEL 7 UNIT 4 STOREY 0,9.59,0.0,N/A,0.000,0.000,0.000,0.000,0.000,0.000,0.000,0.000,No
 Zone Internal Gains Nominal, BLOCK LEVEL 6 UNIT 0 STOREY 0,60.27,0.0,N/A,0.000,0.000,0.000,0.000,0.000,0.000,0.000,0.000,No
 Zone Internal Gains Nominal, BLOCK LEVEL 6 UNIT 1 STOREY 0,65.62,0.0,N/A,0.000,0.000,0.000,0.000,0.000,0.000,0.000,0.000,No
 Zone Internal Gains Nominal, BLOCK LEVEL 6 UNIT 2 STOREY 0,67.11,0.0,N/A,0.000,0.000,0.000,0.000,0.000,0.000,0.000,0.000,No
 Zone Internal Gains Nominal, BLOCK LEVEL 6 UNIT 3 STOREY 0,2.55,0.0,N/A,0.000,0.000,0.000,0.000,0.000,0.000,0.000,0.000,No
 Zone Internal Gains Nominal, BLOCK LEVEL 6 UNIT 4 STOREY 0,9.59,0.0,N/A,0.000,0.000,0.000,0.000,0.000,0.000,0.000,0.000,No
 Zone Internal Gains Nominal, BLOCK LEVEL 5 UNIT 0 STOREY 0,60.27,0.0,N/A,0.000,0.000,0.000,0.000,0.000,0.000,0.000,0.000,No
 Zone Internal Gains Nominal, BLOCK LEVEL 5 UNIT 1 STOREY 0,65.62,0.0,N/A,0.000,0.000,0.000,0.000,0.000,0.000,0.000,0.000,No
 Zone Internal Gains Nominal, BLOCK LEVEL 5 UNIT 2 STOREY 0,67.11,0.0,N/A,0.000,0.000,0.000,0.000,0.000,0.000,0.000,0.000,No
 Zone Internal Gains Nominal, BLOCK LEVEL 5 UNIT 3 STOREY 0,2.55,0.0,N/A,0.000,0.000,0.000,0.000,0.000,0.000,0.000,0.000,No
 Zone Internal Gains Nominal, BLOCK LEVEL 5 UNIT 4 STOREY 0,9.59,0.0,N/A,0.000,0.000,0.000,0.000,0.000,0.000,0.000,0.000,No
 Zone Internal Gains Nominal, BLOCK LEVEL 4 UNIT 0 STOREY 0,60.27,0.0,N/A,0.000,0.000,0.000,0.000,0.000,0.000,0.000,0.000,No
 Zone Internal Gains Nominal, BLOCK LEVEL 4 UNIT 1 STOREY 0,65.62,0.0,N/A,0.000,0.000,0.000,0.000,0.000,0.000,0.000,0.000,No
 Zone Internal Gains Nominal, BLOCK LEVEL 4 UNIT 2 STOREY 0,67.11,0.0,N/A,0.000,0.000,0.000,0.000,0.000,0.000,0.000,0.000,No
 Zone Internal Gains Nominal, BLOCK LEVEL 4 UNIT 3 STOREY 0,2.55,0.0,N/A,0.000,0.000,0.000,0.000,0.000,0.000,0.000,0.000,No
 Zone Internal Gains Nominal, BLOCK LEVEL 4 UNIT 4 STOREY 0,9.59,0.0,N/A,0.000,0.000,0.000,0.000,0.000,0.000,0.000,0.000,No
 Zone Internal Gains Nominal, BLOCK LEVEL 3 UNIT 0 STOREY 0,60.27,0.0,N/A,0.000,0.000,0.000,0.000,0.000,0.000,0.000,0.000,No
 Zone Internal Gains Nominal, BLOCK LEVEL 3 UNIT 1 STOREY 0,65.62,0.0,N/A,0.000,0.000,0.000,0.000,0.000,0.000,0.000,0.000,No
 Zone Internal Gains Nominal, BLOCK LEVEL 3 UNIT 2 STOREY 0,67.11,0.0,N/A,0.000,0.000,0.000,0.000,0.000,0.000,0.000,0.000,No
 Zone Internal Gains Nominal, BLOCK LEVEL 3 UNIT 3 STOREY 0,2.55,0.0,N/A,0.000,0.000,0.000,0.000,0.000,0.000,0.000,0.000,No
 Zone Internal Gains Nominal, BLOCK LEVEL 3 UNIT 4 STOREY 0,9.59,0.0,N/A,0.000,0.000,0.000,0.000,0.000,0.000,0.000,0.000,No
 Zone Internal Gains Nominal, BLOCK LEVEL 2 UNIT 0 STOREY 0,60.28,0.0,N/A,0.000,0.000,0.000,0.000,0.000,0.000,0.000,0.000,No
 Zone Internal Gains Nominal, BLOCK LEVEL 2 UNIT 1 STOREY 0,65.64,0.0,N/A,0.000,0.000,0.000,0.000,0.000,0.000,0.000,0.000,No
 Zone Internal Gains Nominal, BLOCK LEVEL 2 UNIT 2 STOREY 0,67.12,0.0,N/A,0.000,0.000,0.000,0.000,0.000,0.000,0.000,0.000,No
 Zone Internal Gains Nominal, BLOCK LEVEL 2 UNIT 3 STOREY 0,9.59,0.0,N/A,0.000,0.000,0.000,0.000,0.000,0.000,0.000,0.000,No
 Zone Internal Gains Nominal, BLOCK LEVEL 1 UNIT 0 STOREY 0,44.92,0.0,N/A,0.000,0.000,0.000,0.000,0.000,0.000,0.000,0.000,No
 Zone Internal Gains Nominal, BLOCK LEVEL 1 UNIT 1 STOREY 0,34.07,0.0,N/A,0.000,0.000,0.000,0.000,0.000,0.000,0.000,0.000,No
 Zone Internal Gains Nominal, BLOCK LEVEL 1 UNIT 2 STOREY 0,29.72,0.0,N/A,0.000,0.000,0.000,0.000,0.000,0.000,0.000,0.000,No
 Zone Internal Gains Nominal, BLOCK LEVEL 1 UNIT 3 STOREY 0,73.16,0.0,N/A,0.000,0.000,0.000,0.000,0.000,0.000,0.000,0.000,No
 Zone Internal Gains Nominal, BLOCK LEVEL 1 UNIT 4 STOREY 0,9.99,0.0,N/A,0.000,0.000,0.000,0.000,0.000,0.000,0.000,0.000,No
 Zone Internal Gains Nominal, BLOCK LEVEL 1 UNIT 5 STOREY 0,2.55,0.0,N/A,0.000,0.000,0.000,0.000,0.000,0.000,0.000,0.000,No
 Zone Internal Gains Nominal, BLOCK LEVEL 1 UNIT 6 STOREY 0,2.48,0.0,N/A,0.000,0.000,0.000,0.000,0.000,0.000,0.000,0.000,No
 Zone Internal Gains Nominal, BLOCK LEVEL 1 UNIT 7 STOREY 0,10.75,0.0,N/A,0.000,0.000,0.000,0.000,0.000,0.000,0.000,0.000,No
 Zone Internal Gains Nominal, BLOCK LEVEL 1 UNIT 8 STOREY 0,11.97,0.0,N/A,0.000,0.000,0.000,0.000,0.000,0.000,0.000,0.000,No
! <Shadowing/Sun Position Calculations Annual Simulations>, Calculation Method, Value {days}, Allowable Number Figures in Shadow Overlap {}, Polygon Clipping Algorithm, Sky Diffuse Modeling Algorithm
Shadowing/Sun Position Calculations Annual Simulations,AverageOverDaysInFrequency,20,15000,SutherlandHodgman,SimpleSkyDiffuseModeling,InternalCalculation,No
! <RoomAir Model>, Zone Name, Mixing/Mundt/UCSDDV/UCSDCV/UCSDUFI/UCSDUFE/User Defined
RoomAir Model,BLOCK LEVEL 9 UNIT 0 STOREY 0,Mixing/Well-Stirred
RoomAir Model,BLOCK LEVEL 9 UNIT 1 STOREY 0,Mixing/Well-Stirred
RoomAir Model,BLOCK LEVEL 9 UNIT 2 STOREY 0,Mixing/Well-Stirred
RoomAir Model,BLOCK LEVEL 9 UNIT 3 STOREY 0,Mixing/Well-Stirred
RoomAir Model,BLOCK LEVEL 8 UNIT 0 STOREY 0,Mixing/Well-Stirred
RoomAir Model,BLOCK LEVEL 8 UNIT 1 STOREY 0,Mixing/Well-Stirred
RoomAir Model,BLOCK LEVEL 8 UNIT 2 STOREY 0,Mixing/Well-Stirred
RoomAir Model,BLOCK LEVEL 8 UNIT 3 STOREY 0,Mixing/Well-Stirred
RoomAir Model,BLOCK LEVEL 8 UNIT 4 STOREY 0,Mixing/Well-Stirred
RoomAir Model,BLOCK LEVEL 7 UNIT 0 STOREY 0,Mixing/Well-Stirred
RoomAir Model,BLOCK LEVEL 7 UNIT 1 STOREY 0,Mixing/Well-Stirred
RoomAir Model,BLOCK LEVEL 7 UNIT 2 STOREY 0,Mixing/Well-Stirred
RoomAir Model,BLOCK LEVEL 7 UNIT 3 STOREY 0,Mixing/Well-Stirred
RoomAir Model,BLOCK LEVEL 7 UNIT 4 STOREY 0,Mixing/Well-Stirred
RoomAir Model,BLOCK LEVEL 6 UNIT 0 STOREY 0,Mixing/Well-Stirred
RoomAir Model,BLOCK LEVEL 6 UNIT 1 STOREY 0,Mixing/Well-Stirred
RoomAir Model,BLOCK LEVEL 6 UNIT 2 STOREY 0,Mixing/Well-Stirred
RoomAir Model,BLOCK LEVEL 6 UNIT 3 STOREY 0,Mixing/Well-Stirred
RoomAir Model,BLOCK LEVEL 6 UNIT 4 STOREY 0,Mixing/Well-Stirred
RoomAir Model,BLOCK LEVEL 5 UNIT 0 STOREY 0,Mixing/Well-Stirred
RoomAir Model,BLOCK LEVEL 5 UNIT 1 STOREY 0,Mixing/Well-Stirred
RoomAir Model,BLOCK LEVEL 5 UNIT 2 STOREY 0,Mixing/Well-Stirred
RoomAir Model,BLOCK LEVEL 5 UNIT 3 STOREY 0,Mixing/Well-Stirred
RoomAir Model,BLOCK LEVEL 5 UNIT 4 STOREY 0,Mixing/Well-Stirred
RoomAir Model,BLOCK LEVEL 4 UNIT 0 STOREY 0,Mixing/Well-Stirred
RoomAir Model,BLOCK LEVEL 4 UNIT 1 STOREY 0,Mixing/Well-Stirred
RoomAir Model,BLOCK LEVEL 4 UNIT 2 STOREY 0,Mixing/Well-Stirred
RoomAir Model,BLOCK LEVEL 4 UNIT 3 STOREY 0,Mixing/Well-Stirred
RoomAir Model,BLOCK LEVEL 4 UNIT 4 STOREY 0,Mixing/Well-Stirred
RoomAir Model,BLOCK LEVEL 3 UNIT 0 STOREY 0,Mixing/Well-Stirred
RoomAir Model,BLOCK LEVEL 3 UNIT 1 STOREY 0,Mixing/Well-Stirred
RoomAir Model,BLOCK LEVEL 3 UNIT 2 STOREY 0,Mixing/Well-Stirred
RoomAir Model,BLOCK LEVEL 3 UNIT 3 STOREY 0,Mixing/Well-Stirred
RoomAir Model,BLOCK LEVEL 3 UNIT 4 STOREY 0,Mixing/Well-Stirred
RoomAir Model,BLOCK LEVEL 2 UNIT 0 STOREY 0,Mixing/Well-Stirred
RoomAir Model,BLOCK LEVEL 2 UNIT 1 STOREY 0,Mixing/Well-Stirred
RoomAir Model,BLOCK LEVEL 2 UNIT 2 STOREY 0,Mixing/Well-Stirred
RoomAir Model,BLOCK LEVEL 2 UNIT 3 STOREY 0,Mixing/Well-Stirred
RoomAir Model,BLOCK LEVEL 1 UNIT 0 STOREY 0,Mixing/Well-Stirred
RoomAir Model,BLOCK LEVEL 1 UNIT 1 STOREY 0,Mixing/Well-Stirred
RoomAir Model,BLOCK LEVEL 1 UNIT 2 STOREY 0,Mixing/Well-Stirred
RoomAir Model,BLOCK LEVEL 1 UNIT 3 STOREY 0,Mixing/Well-Stirred
RoomAir Model,BLOCK LEVEL 1 UNIT 4 STOREY 0,Mixing/Well-Stirred
RoomAir Model,BLOCK LEVEL 1 UNIT 5 STOREY 0,Mixing/Well-Stirred
RoomAir Model,BLOCK LEVEL 1 UNIT 6 STOREY 0,Mixing/Well-Stirred
RoomAir Model,BLOCK LEVEL 1 UNIT 7 STOREY 0,Mixing/Well-Stirred
RoomAir Model,BLOCK LEVEL 1 UNIT 8 STOREY 0,Mixing/Well-Stirred
! <AirflowNetwork Model:Control>, No Multizone or Distribution/Multizone with Distribution/Multizone without Distribution/Multizone with Distribution only during Fan Operation
AirflowNetwork Model:Control,NoMultizoneOrDistribution
! <Zone Volume Capacitance Multiplier>, Sensible Heat Capacity Multiplier, Moisture Capacity Multiplier, Carbon Dioxide Capacity Multiplier, Generic Contaminant Capacity Multiplier
Zone Volume Capacitance Multiplier,   1.000 ,   1.000,   1.000,   1.000
! <Environment>,Environment Name,Environment Type, Start Date, End Date, Start DayOfWeek, Duration {#days}, Source:Start DayOfWeek,  Use Daylight Saving, Use Holidays, Apply Weekend Holiday Rule,  Use Rain Values, Use Snow Values
! <Environment:Special Days>, Special Day Name, Special Day Type, Source, Start Date, Duration {#days}
! <Environment:Daylight Saving>, Daylight Saving Indicator, Source, Start Date, End Date
! <Environment:WarmupDays>, NumberofWarmupDays
Environment,DENVER_STAPLETON ANN HTG 99.6% CONDNS DB,SizingPeriod:DesignDay,12/21,12/21,WinterDesignDay,1,N/A,N/A,N/A,N/A,N/A,N/A
Environment:Daylight Saving,No,SizingPeriod:DesignDay
! <Environment:Design Day Data>, Max Dry-Bulb Temp {C}, Temp Range {dC}, Temp Range Ind Type, Hum Ind Value at Max Temp, Hum Ind Type,Pressure {Pa}, Wind Direction {deg CW from N}, Wind Speed {m/s}, Clearness, Rain, Snow
! <Environment:Design Day Misc>,DayOfYear,ASHRAE A Coeff,ASHRAE B Coeff,ASHRAE C Coeff,Solar Constant-Annual Variation,Eq of Time {minutes}, Solar Declination Angle {deg}, Solar Model
Environment:Design Day Data,-20.00,0.00,DefaultMultipliers,101253,180,2.3,0.00,No,No
Environment:Design Day Misc,355,1232.8,0.1424,5.7719E-002,1.0,2.45,-23.5,ASHRAEClearSky
Environment:WarmupDays,  8
! <Warmup Convergence Information>,Zone Name,Environment Type/Name,Average Warmup Temperature Difference {deltaC},Std Dev Warmup Temperature Difference {deltaC},Max Temperature Pass/Fail Convergence,Min Temperature Pass/Fail Convergence,Average Warmup Load Difference {W},Std Dev Warmup Load Difference {W},Heating Load Pass/Fail Convergence,Cooling Load Pass/Fail Convergence
 Warmup Convergence Information,BLOCK LEVEL 9 UNIT 0 STOREY 0,SizingPeriod: DENVER_STAPLETON ANN HTG 99.6% CONDNS DB,3.4838346598E-006,1.1497628295E-006,Pass,Pass,0.0000000000,0.0000000000,Pass,Pass
 Warmup Convergence Information,BLOCK LEVEL 9 UNIT 1 STOREY 0,SizingPeriod: DENVER_STAPLETON ANN HTG 99.6% CONDNS DB,4.9285120657E-006,1.6291000152E-006,Pass,Pass,0.0000000000,0.0000000000,Pass,Pass
 Warmup Convergence Information,BLOCK LEVEL 9 UNIT 2 STOREY 0,SizingPeriod: DENVER_STAPLETON ANN HTG 99.6% CONDNS DB,1.4246980829E-005,4.6969540390E-006,Pass,Pass,0.0000000000,0.0000000000,Pass,Pass
 Warmup Convergence Information,BLOCK LEVEL 9 UNIT 3 STOREY 0,SizingPeriod: DENVER_STAPLETON ANN HTG 99.6% CONDNS DB,2.3647738048E-005,7.7868148812E-006,Pass,Pass,0.0000000000,0.0000000000,Pass,Pass
 Warmup Convergence Information,BLOCK LEVEL 8 UNIT 0 STOREY 0,SizingPeriod: DENVER_STAPLETON ANN HTG 99.6% CONDNS DB,6.5426396147E-006,2.1634130113E-006,Pass,Pass,0.0000000000,0.0000000000,Pass,Pass
 Warmup Convergence Information,BLOCK LEVEL 8 UNIT 1 STOREY 0,SizingPeriod: DENVER_STAPLETON ANN HTG 99.6% CONDNS DB,6.9269034735E-006,2.2784973888E-006,Pass,Pass,0.0000000000,0.0000000000,Pass,Pass
 Warmup Convergence Information,BLOCK LEVEL 8 UNIT 2 STOREY 0,SizingPeriod: DENVER_STAPLETON ANN HTG 99.6% CONDNS DB,6.1891157446E-006,2.0220492588E-006,Pass,Pass,0.0000000000,0.0000000000,Pass,Pass
 Warmup Convergence Information,BLOCK LEVEL 8 UNIT 3 STOREY 0,SizingPeriod: DENVER_STAPLETON ANN HTG 99.6% CONDNS DB,1.9524312698E-005,6.3366084300E-006,Pass,Pass,0.0000000000,0.0000000000,Pass,Pass
 Warmup Convergence Information,BLOCK LEVEL 8 UNIT 4 STOREY 0,SizingPeriod: DENVER_STAPLETON ANN HTG 99.6% CONDNS DB,3.1982937873E-005,1.0388589544E-005,Pass,Pass,0.0000000000,0.0000000000,Pass,Pass
 Warmup Convergence Information,BLOCK LEVEL 7 UNIT 0 STOREY 0,SizingPeriod: DENVER_STAPLETON ANN HTG 99.6% CONDNS DB,6.6425117568E-006,2.1991873679E-006,Pass,Pass,0.0000000000,0.0000000000,Pass,Pass
 Warmup Convergence Information,BLOCK LEVEL 7 UNIT 1 STOREY 0,SizingPeriod: DENVER_STAPLETON ANN HTG 99.6% CONDNS DB,6.8858381832E-006,2.2676908113E-006,Pass,Pass,0.0000000000,0.0000000000,Pass,Pass
 Warmup Convergence Information,BLOCK LEVEL 7 UNIT 2 STOREY 0,SizingPeriod: DENVER_STAPLETON ANN HTG 99.6% CONDNS DB,6.1106559619E-006,2.0035516855E-006,Pass,Pass,0.0000000000,0.0000000000,Pass,Pass
 Warmup Convergence Information,BLOCK LEVEL 7 UNIT 3 STOREY 0,SizingPeriod: DENVER_STAPLETON ANN HTG 99.6% CONDNS DB,1.9533919069E-005,6.3427382943E-006,Pass,Pass,0.0000000000,0.0000000000,Pass,Pass
 Warmup Convergence Information,BLOCK LEVEL 7 UNIT 4 STOREY 0,SizingPeriod: DENVER_STAPLETON ANN HTG 99.6% CONDNS DB,3.1674760126E-005,1.0275871887E-005,Pass,Pass,0.0000000000,0.0000000000,Pass,Pass
 Warmup Convergence Information,BLOCK LEVEL 6 UNIT 0 STOREY 0,SizingPeriod: DENVER_STAPLETON ANN HTG 99.6% CONDNS DB,6.7664989575E-006,2.2386412677E-006,Pass,Pass,0.0000000000,0.0000000000,Pass,Pass
 Warmup Convergence Information,BLOCK LEVEL 6 UNIT 1 STOREY 0,SizingPeriod: DENVER_STAPLETON ANN HTG 99.6% CONDNS DB,6.9286973358E-006,2.2792118931E-006,Pass,Pass,0.0000000000,0.0000000000,Pass,Pass
 Warmup Convergence Information,BLOCK LEVEL 6 UNIT 2 STOREY 0,SizingPeriod: DENVER_STAPLETON ANN HTG 99.6% CONDNS DB,6.2132841389E-006,2.0348839125E-006,Pass,Pass,0.0000000000,0.0000000000,Pass,Pass
 Warmup Convergence Information,BLOCK LEVEL 6 UNIT 3 STOREY 0,SizingPeriod: DENVER_STAPLETON ANN HTG 99.6% CONDNS DB,1.9726853352E-005,6.4010576130E-006,Pass,Pass,0.0000000000,0.0000000000,Pass,Pass
 Warmup Convergence Information,BLOCK LEVEL 6 UNIT 4 STOREY 0,SizingPeriod: DENVER_STAPLETON ANN HTG 99.6% CONDNS DB,3.1778566605E-005,1.0307942660E-005,Pass,Pass,0.0000000000,0.0000000000,Pass,Pass
 Warmup Convergence Information,BLOCK LEVEL 5 UNIT 0 STOREY 0,SizingPeriod: DENVER_STAPLETON ANN HTG 99.6% CONDNS DB,6.8982697181E-006,2.2781762684E-006,Pass,Pass,0.0000000000,0.0000000000,Pass,Pass
 Warmup Convergence Information,BLOCK LEVEL 5 UNIT 1 STOREY 0,SizingPeriod: DENVER_STAPLETON ANN HTG 99.6% CONDNS DB,7.0473019261E-006,2.3181413827E-006,Pass,Pass,0.0000000000,0.0000000000,Pass,Pass
 Warmup Convergence Information,BLOCK LEVEL 5 UNIT 2 STOREY 0,SizingPeriod: DENVER_STAPLETON ANN HTG 99.6% CONDNS DB,6.1800665191E-006,2.0245943087E-006,Pass,Pass,0.0000000000,0.0000000000,Pass,Pass
 Warmup Convergence Information,BLOCK LEVEL 5 UNIT 3 STOREY 0,SizingPeriod: DENVER_STAPLETON ANN HTG 99.6% CONDNS DB,2.0066259264E-005,6.4899470627E-006,Pass,Pass,0.0000000000,0.0000000000,Pass,Pass
 Warmup Convergence Information,BLOCK LEVEL 5 UNIT 4 STOREY 0,SizingPeriod: DENVER_STAPLETON ANN HTG 99.6% CONDNS DB,3.2298382451E-005,1.0410580273E-005,Pass,Pass,0.0000000000,0.0000000000,Pass,Pass
 Warmup Convergence Information,BLOCK LEVEL 4 UNIT 0 STOREY 0,SizingPeriod: DENVER_STAPLETON ANN HTG 99.6% CONDNS DB,7.2377173789E-006,2.3819169398E-006,Pass,Pass,0.0000000000,0.0000000000,Pass,Pass
 Warmup Convergence Information,BLOCK LEVEL 4 UNIT 1 STOREY 0,SizingPeriod: DENVER_STAPLETON ANN HTG 99.6% CONDNS DB,7.3396873220E-006,2.4055098769E-006,Pass,Pass,0.0000000000,0.0000000000,Pass,Pass
 Warmup Convergence Information,BLOCK LEVEL 4 UNIT 2 STOREY 0,SizingPeriod: DENVER_STAPLETON ANN HTG 99.6% CONDNS DB,6.3332573875E-006,2.0576077813E-006,Pass,Pass,0.0000000000,0.0000000000,Pass,Pass
 Warmup Convergence Information,BLOCK LEVEL 4 UNIT 3 STOREY 0,SizingPeriod: DENVER_STAPLETON ANN HTG 99.6% CONDNS DB,2.0613748264E-005,6.6438544260E-006,Pass,Pass,0.0000000000,0.0000000000,Pass,Pass
 Warmup Convergence Information,BLOCK LEVEL 4 UNIT 4 STOREY 0,SizingPeriod: DENVER_STAPLETON ANN HTG 99.6% CONDNS DB,3.3160251069E-005,1.0646562152E-005,Pass,Pass,0.0000000000,0.0000000000,Pass,Pass
 Warmup Convergence Information,BLOCK LEVEL 3 UNIT 0 STOREY 0,SizingPeriod: DENVER_STAPLETON ANN HTG 99.6% CONDNS DB,7.4971470735E-006,2.4590523720E-006,Pass,Pass,0.0000000000,0.0000000000,Pass,Pass
 Warmup Convergence Information,BLOCK LEVEL 3 UNIT 1 STOREY 0,SizingPeriod: DENVER_STAPLETON ANN HTG 99.6% CONDNS DB,7.6770960960E-006,2.5066765232E-006,Pass,Pass,0.0000000000,0.0000000000,Pass,Pass
 Warmup Convergence Information,BLOCK LEVEL 3 UNIT 2 STOREY 0,SizingPeriod: DENVER_STAPLETON ANN HTG 99.6% CONDNS DB,6.6171051397E-006,2.1327677329E-006,Pass,Pass,0.0000000000,0.0000000000,Pass,Pass
 Warmup Convergence Information,BLOCK LEVEL 3 UNIT 3 STOREY 0,SizingPeriod: DENVER_STAPLETON ANN HTG 99.6% CONDNS DB,2.1485373804E-005,6.8952170543E-006,Pass,Pass,0.0000000000,0.0000000000,Pass,Pass
 Warmup Convergence Information,BLOCK LEVEL 3 UNIT 4 STOREY 0,SizingPeriod: DENVER_STAPLETON ANN HTG 99.6% CONDNS DB,3.4372910600E-005,1.0989957917E-005,Pass,Pass,0.0000000000,0.0000000000,Pass,Pass
 Warmup Convergence Information,BLOCK LEVEL 2 UNIT 0 STOREY 0,SizingPeriod: DENVER_STAPLETON ANN HTG 99.6% CONDNS DB,4.2212054462E-006,1.5064341210E-006,Pass,Pass,0.0000000000,0.0000000000,Pass,Pass
 Warmup Convergence Information,BLOCK LEVEL 2 UNIT 1 STOREY 0,SizingPeriod: DENVER_STAPLETON ANN HTG 99.6% CONDNS DB,4.8482422539E-006,1.7215206285E-006,Pass,Pass,0.0000000000,0.0000000000,Pass,Pass
 Warmup Convergence Information,BLOCK LEVEL 2 UNIT 2 STOREY 0,SizingPeriod: DENVER_STAPLETON ANN HTG 99.6% CONDNS DB,3.9862510121E-006,1.4105283170E-006,Pass,Pass,0.0000000000,0.0000000000,Pass,Pass
 Warmup Convergence Information,BLOCK LEVEL 2 UNIT 3 STOREY 0,SizingPeriod: DENVER_STAPLETON ANN HTG 99.6% CONDNS DB,1.3964622578E-005,4.9049389398E-006,Pass,Pass,0.0000000000,0.0000000000,Pass,Pass
 Warmup Convergence Information,BLOCK LEVEL 1 UNIT 0 STOREY 0,SizingPeriod: DENVER_STAPLETON ANN HTG 99.6% CONDNS DB,1.5832465942E-004,3.3779548634E-005,Pass,Pass,0.0000000000,0.0000000000,Pass,Pass
 Warmup Convergence Information,BLOCK LEVEL 1 UNIT 1 STOREY 0,SizingPeriod: DENVER_STAPLETON ANN HTG 99.6% CONDNS DB,1.5481995841E-004,3.2708636703E-005,Pass,Pass,0.0000000000,0.0000000000,Pass,Pass
 Warmup Convergence Information,BLOCK LEVEL 1 UNIT 2 STOREY 0,SizingPeriod: DENVER_STAPLETON ANN HTG 99.6% CONDNS DB,9.3543829098E-005,2.0597685970E-005,Pass,Pass,0.0000000000,0.0000000000,Pass,Pass
 Warmup Convergence Information,BLOCK LEVEL 1 UNIT 3 STOREY 0,SizingPeriod: DENVER_STAPLETON ANN HTG 99.6% CONDNS DB,4.0169980900E-005,8.9684891176E-006,Pass,Pass,0.0000000000,0.0000000000,Pass,Pass
 Warmup Convergence Information,BLOCK LEVEL 1 UNIT 4 STOREY 0,SizingPeriod: DENVER_STAPLETON ANN HTG 99.6% CONDNS DB,3.8288801492E-004,8.0165361921E-005,Pass,Pass,0.0000000000,0.0000000000,Pass,Pass
 Warmup Convergence Information,BLOCK LEVEL 1 UNIT 5 STOREY 0,SizingPeriod: DENVER_STAPLETON ANN HTG 99.6% CONDNS DB,5.7512472809E-004,1.2019060169E-004,Pass,Pass,0.0000000000,0.0000000000,Pass,Pass
 Warmup Convergence Information,BLOCK LEVEL 1 UNIT 6 STOREY 0,SizingPeriod: DENVER_STAPLETON ANN HTG 99.6% CONDNS DB,5.3991660754E-004,1.1193372370E-004,Pass,Pass,0.0000000000,0.0000000000,Pass,Pass
 Warmup Convergence Information,BLOCK LEVEL 1 UNIT 7 STOREY 0,SizingPeriod: DENVER_STAPLETON ANN HTG 99.6% CONDNS DB,2.1492841926E-004,4.6123095618E-005,Pass,Pass,0.0000000000,0.0000000000,Pass,Pass
 Warmup Convergence Information,BLOCK LEVEL 1 UNIT 8 STOREY 0,SizingPeriod: DENVER_STAPLETON ANN HTG 99.6% CONDNS DB,1.0173960797E-004,2.1954833806E-005,Pass,Pass,0.0000000000,0.0000000000,Pass,Pass
Environment,DENVER_STAPLETON ANN CLG .4% CONDNS DB=>MWB,SizingPeriod:DesignDay,07/21,07/21,SummerDesignDay,1,N/A,N/A,N/A,N/A,N/A,N/A
Environment:Daylight Saving,No,SizingPeriod:DesignDay
Environment:Design Day Data,34.10,15.20,DefaultMultipliers,101253,120,4.0,1.00,No,No
Environment:Design Day Misc,202,1084.4,0.2082,0.1365,1.0,-6.23,20.6,ASHRAEClearSky
Environment:WarmupDays,  6
 Warmup Convergence Information,BLOCK LEVEL 9 UNIT 0 STOREY 0,SizingPeriod: DENVER_STAPLETON ANN CLG .4% CONDNS DB=>MWB,0.3546912908,0.1739966965,Pass,Pass,0.0000000000,0.0000000000,Pass,Pass
 Warmup Convergence Information,BLOCK LEVEL 9 UNIT 1 STOREY 0,SizingPeriod: DENVER_STAPLETON ANN CLG .4% CONDNS DB=>MWB,0.3225535119,0.1790660192,Pass,Pass,0.0000000000,0.0000000000,Pass,Pass
 Warmup Convergence Information,BLOCK LEVEL 9 UNIT 2 STOREY 0,SizingPeriod: DENVER_STAPLETON ANN CLG .4% CONDNS DB=>MWB,0.3808517590,0.3337669620,Pass,Pass,0.0000000000,0.0000000000,Pass,Pass
 Warmup Convergence Information,BLOCK LEVEL 9 UNIT 3 STOREY 0,SizingPeriod: DENVER_STAPLETON ANN CLG .4% CONDNS DB=>MWB,9.5380243569E-002,6.6253062777E-002,Pass,Pass,0.0000000000,0.0000000000,Pass,Pass
 Warmup Convergence Information,BLOCK LEVEL 8 UNIT 0 STOREY 0,SizingPeriod: DENVER_STAPLETON ANN CLG .4% CONDNS DB=>MWB,0.2917515265,0.1874053194,Pass,Pass,0.0000000000,0.0000000000,Pass,Pass
 Warmup Convergence Information,BLOCK LEVEL 8 UNIT 1 STOREY 0,SizingPeriod: DENVER_STAPLETON ANN CLG .4% CONDNS DB=>MWB,0.2233172777,0.1184968266,Pass,Pass,0.0000000000,0.0000000000,Pass,Pass
 Warmup Convergence Information,BLOCK LEVEL 8 UNIT 2 STOREY 0,SizingPeriod: DENVER_STAPLETON ANN CLG .4% CONDNS DB=>MWB,0.2322875764,0.1385228510,Pass,Pass,0.0000000000,0.0000000000,Pass,Pass
 Warmup Convergence Information,BLOCK LEVEL 8 UNIT 3 STOREY 0,SizingPeriod: DENVER_STAPLETON ANN CLG .4% CONDNS DB=>MWB,0.1570337271,7.4001812933E-002,Pass,Pass,0.0000000000,0.0000000000,Pass,Pass
 Warmup Convergence Information,BLOCK LEVEL 8 UNIT 4 STOREY 0,SizingPeriod: DENVER_STAPLETON ANN CLG .4% CONDNS DB=>MWB,7.8519965849E-002,5.8237963520E-002,Pass,Pass,0.0000000000,0.0000000000,Pass,Pass
 Warmup Convergence Information,BLOCK LEVEL 7 UNIT 0 STOREY 0,SizingPeriod: DENVER_STAPLETON ANN CLG .4% CONDNS DB=>MWB,0.2840152711,0.1933480251,Pass,Pass,0.0000000000,0.0000000000,Pass,Pass
 Warmup Convergence Information,BLOCK LEVEL 7 UNIT 1 STOREY 0,SizingPeriod: DENVER_STAPLETON ANN CLG .4% CONDNS DB=>MWB,0.2197505371,0.1210867516,Pass,Pass,0.0000000000,0.0000000000,Pass,Pass
 Warmup Convergence Information,BLOCK LEVEL 7 UNIT 2 STOREY 0,SizingPeriod: DENVER_STAPLETON ANN CLG .4% CONDNS DB=>MWB,0.2208646754,0.1236444727,Pass,Pass,0.0000000000,0.0000000000,Pass,Pass
 Warmup Convergence Information,BLOCK LEVEL 7 UNIT 3 STOREY 0,SizingPeriod: DENVER_STAPLETON ANN CLG .4% CONDNS DB=>MWB,0.1457169365,6.2341075093E-002,Pass,Pass,0.0000000000,0.0000000000,Pass,Pass
 Warmup Convergence Information,BLOCK LEVEL 7 UNIT 4 STOREY 0,SizingPeriod: DENVER_STAPLETON ANN CLG .4% CONDNS DB=>MWB,7.3068300056E-002,5.6438234197E-002,Pass,Pass,0.0000000000,0.0000000000,Pass,Pass
 Warmup Convergence Information,BLOCK LEVEL 6 UNIT 0 STOREY 0,SizingPeriod: DENVER_STAPLETON ANN CLG .4% CONDNS DB=>MWB,0.2803044084,0.1943131208,Pass,Pass,0.0000000000,0.0000000000,Pass,Pass
 Warmup Convergence Information,BLOCK LEVEL 6 UNIT 1 STOREY 0,SizingPeriod: DENVER_STAPLETON ANN CLG .4% CONDNS DB=>MWB,0.2106770258,0.1278819397,Pass,Pass,0.0000000000,0.0000000000,Pass,Pass
 Warmup Convergence Information,BLOCK LEVEL 6 UNIT 2 STOREY 0,SizingPeriod: DENVER_STAPLETON ANN CLG .4% CONDNS DB=>MWB,0.2123815242,0.1208711372,Pass,Pass,0.0000000000,0.0000000000,Pass,Pass
 Warmup Convergence Information,BLOCK LEVEL 6 UNIT 3 STOREY 0,SizingPeriod: DENVER_STAPLETON ANN CLG .4% CONDNS DB=>MWB,0.1445130503,6.1957720620E-002,Pass,Pass,0.0000000000,0.0000000000,Pass,Pass
 Warmup Convergence Information,BLOCK LEVEL 6 UNIT 4 STOREY 0,SizingPeriod: DENVER_STAPLETON ANN CLG .4% CONDNS DB=>MWB,6.7180281538E-002,5.4659841084E-002,Pass,Pass,0.0000000000,0.0000000000,Pass,Pass
 Warmup Convergence Information,BLOCK LEVEL 5 UNIT 0 STOREY 0,SizingPeriod: DENVER_STAPLETON ANN CLG .4% CONDNS DB=>MWB,0.2794186134,0.1951293527,Pass,Pass,0.0000000000,0.0000000000,Pass,Pass
 Warmup Convergence Information,BLOCK LEVEL 5 UNIT 1 STOREY 0,SizingPeriod: DENVER_STAPLETON ANN CLG .4% CONDNS DB=>MWB,0.2066628549,0.1318331875,Pass,Pass,0.0000000000,0.0000000000,Pass,Pass
 Warmup Convergence Information,BLOCK LEVEL 5 UNIT 2 STOREY 0,SizingPeriod: DENVER_STAPLETON ANN CLG .4% CONDNS DB=>MWB,0.1972126959,0.1224495696,Pass,Pass,0.0000000000,0.0000000000,Pass,Pass
 Warmup Convergence Information,BLOCK LEVEL 5 UNIT 3 STOREY 0,SizingPeriod: DENVER_STAPLETON ANN CLG .4% CONDNS DB=>MWB,0.1422431470,6.1199982740E-002,Pass,Pass,0.0000000000,0.0000000000,Pass,Pass
 Warmup Convergence Information,BLOCK LEVEL 5 UNIT 4 STOREY 0,SizingPeriod: DENVER_STAPLETON ANN CLG .4% CONDNS DB=>MWB,5.7933909226E-002,3.2194150084E-002,Pass,Pass,0.0000000000,0.0000000000,Pass,Pass
 Warmup Convergence Information,BLOCK LEVEL 4 UNIT 0 STOREY 0,SizingPeriod: DENVER_STAPLETON ANN CLG .4% CONDNS DB=>MWB,0.2780772480,0.1964157718,Pass,Pass,0.0000000000,0.0000000000,Pass,Pass
 Warmup Convergence Information,BLOCK LEVEL 4 UNIT 1 STOREY 0,SizingPeriod: DENVER_STAPLETON ANN CLG .4% CONDNS DB=>MWB,0.1984553318,0.1327584236,Pass,Pass,0.0000000000,0.0000000000,Pass,Pass
 Warmup Convergence Information,BLOCK LEVEL 4 UNIT 2 STOREY 0,SizingPeriod: DENVER_STAPLETON ANN CLG .4% CONDNS DB=>MWB,0.1888269810,0.1180043828,Pass,Pass,0.0000000000,0.0000000000,Pass,Pass
 Warmup Convergence Information,BLOCK LEVEL 4 UNIT 3 STOREY 0,SizingPeriod: DENVER_STAPLETON ANN CLG .4% CONDNS DB=>MWB,0.1418368095,6.2123899437E-002,Pass,Pass,0.0000000000,0.0000000000,Pass,Pass
 Warmup Convergence Information,BLOCK LEVEL 4 UNIT 4 STOREY 0,SizingPeriod: DENVER_STAPLETON ANN CLG .4% CONDNS DB=>MWB,5.7158378071E-002,2.8686153742E-002,Pass,Pass,0.0000000000,0.0000000000,Pass,Pass
 Warmup Convergence Information,BLOCK LEVEL 3 UNIT 0 STOREY 0,SizingPeriod: DENVER_STAPLETON ANN CLG .4% CONDNS DB=>MWB,0.2773158727,0.1990590935,Pass,Pass,0.0000000000,0.0000000000,Pass,Pass
 Warmup Convergence Information,BLOCK LEVEL 3 UNIT 1 STOREY 0,SizingPeriod: DENVER_STAPLETON ANN CLG .4% CONDNS DB=>MWB,0.1946296360,0.1336992252,Pass,Pass,0.0000000000,0.0000000000,Pass,Pass
 Warmup Convergence Information,BLOCK LEVEL 3 UNIT 2 STOREY 0,SizingPeriod: DENVER_STAPLETON ANN CLG .4% CONDNS DB=>MWB,0.1853803655,0.1164538242,Pass,Pass,0.0000000000,0.0000000000,Pass,Pass
 Warmup Convergence Information,BLOCK LEVEL 3 UNIT 3 STOREY 0,SizingPeriod: DENVER_STAPLETON ANN CLG .4% CONDNS DB=>MWB,0.1407238197,6.1913803149E-002,Pass,Pass,0.0000000000,0.0000000000,Pass,Pass
 Warmup Convergence Information,BLOCK LEVEL 3 UNIT 4 STOREY 0,SizingPeriod: DENVER_STAPLETON ANN CLG .4% CONDNS DB=>MWB,5.5091694714E-002,2.9268120627E-002,Pass,Pass,0.0000000000,0.0000000000,Pass,Pass
 Warmup Convergence Information,BLOCK LEVEL 2 UNIT 0 STOREY 0,SizingPeriod: DENVER_STAPLETON ANN CLG .4% CONDNS DB=>MWB,0.2774333804,0.2024224803,Pass,Pass,0.0000000000,0.0000000000,Pass,Pass
 Warmup Convergence Information,BLOCK LEVEL 2 UNIT 1 STOREY 0,SizingPeriod: DENVER_STAPLETON ANN CLG .4% CONDNS DB=>MWB,0.1895697263,0.1416449262,Pass,Pass,0.0000000000,0.0000000000,Pass,Pass
 Warmup Convergence Information,BLOCK LEVEL 2 UNIT 2 STOREY 0,SizingPeriod: DENVER_STAPLETON ANN CLG .4% CONDNS DB=>MWB,0.1828783782,0.1130521730,Pass,Pass,0.0000000000,0.0000000000,Pass,Pass
 Warmup Convergence Information,BLOCK LEVEL 2 UNIT 3 STOREY 0,SizingPeriod: DENVER_STAPLETON ANN CLG .4% CONDNS DB=>MWB,6.3952290252E-002,3.5198743987E-002,Pass,Pass,0.0000000000,0.0000000000,Pass,Pass
 Warmup Convergence Information,BLOCK LEVEL 1 UNIT 0 STOREY 0,SizingPeriod: DENVER_STAPLETON ANN CLG .4% CONDNS DB=>MWB,0.2089858417,0.2163797589,Pass,Pass,0.0000000000,0.0000000000,Pass,Pass
 Warmup Convergence Information,BLOCK LEVEL 1 UNIT 1 STOREY 0,SizingPeriod: DENVER_STAPLETON ANN CLG .4% CONDNS DB=>MWB,0.1279584910,0.1114210598,Pass,Pass,0.0000000000,0.0000000000,Pass,Pass
 Warmup Convergence Information,BLOCK LEVEL 1 UNIT 2 STOREY 0,SizingPeriod: DENVER_STAPLETON ANN CLG .4% CONDNS DB=>MWB,0.1952825138,0.1847504390,Pass,Pass,0.0000000000,0.0000000000,Pass,Pass
 Warmup Convergence Information,BLOCK LEVEL 1 UNIT 3 STOREY 0,SizingPeriod: DENVER_STAPLETON ANN CLG .4% CONDNS DB=>MWB,0.1447531812,0.1091771227,Pass,Pass,0.0000000000,0.0000000000,Pass,Pass
 Warmup Convergence Information,BLOCK LEVEL 1 UNIT 4 STOREY 0,SizingPeriod: DENVER_STAPLETON ANN CLG .4% CONDNS DB=>MWB,2.5085012816E-002,1.7332385103E-002,Pass,Pass,0.0000000000,0.0000000000,Pass,Pass
 Warmup Convergence Information,BLOCK LEVEL 1 UNIT 5 STOREY 0,SizingPeriod: DENVER_STAPLETON ANN CLG .4% CONDNS DB=>MWB,1.2120339646E-002,8.2065169357E-003,Pass,Pass,0.0000000000,0.0000000000,Pass,Pass
 Warmup Convergence Information,BLOCK LEVEL 1 UNIT 6 STOREY 0,SizingPeriod: DENVER_STAPLETON ANN CLG .4% CONDNS DB=>MWB,1.3565463330E-002,9.0646355927E-003,Pass,Pass,0.0000000000,0.0000000000,Pass,Pass
 Warmup Convergence Information,BLOCK LEVEL 1 UNIT 7 STOREY 0,SizingPeriod: DENVER_STAPLETON ANN CLG .4% CONDNS DB=>MWB,2.7527138384E-002,1.5832383345E-002,Pass,Pass,0.0000000000,0.0000000000,Pass,Pass
 Warmup Convergence Information,BLOCK LEVEL 1 UNIT 8 STOREY 0,SizingPeriod: DENVER_STAPLETON ANN CLG .4% CONDNS DB=>MWB,6.8807299800E-002,3.4674787309E-002,Pass,Pass,0.0000000000,0.0000000000,Pass,Pass
! <Program Control Information:Threads/Parallel Sims>, Threading Supported,Maximum Number of Threads, Env Set Threads (OMP_NUM_THREADS), EP Env Set Threads (EP_OMP_NUM_THREADS), IDF Set Threads, Number of Threads Used (Interior Radiant Exchange), Number Nominal Surfaces, Number Parallel Sims
Program Control:Threads/Parallel Sims, No,1, N/A, N/A, N/A, N/A, N/A, N/A
End of Data
