Program Version,EnergyPlus, Version 8.8.0-7c3bbe4830, YMD=2019.09.19 10:42,IDD_Version 8.8.0
Var Type (reported time step),Var Report Type,Variable Name [Units]
Zone,Meter,EnergyTransfer:Facility [J]
Zone,Meter,EnergyTransfer:Building [J]
Zone,Meter,EnergyTransfer:Zone:BLOCK LEVEL 9 UNIT 0 STOREY 0 [J]
Zone,Meter,Heating:EnergyTransfer [J]
Zone,Meter,Heating:EnergyTransfer:Zone:BLOCK LEVEL 9 UNIT 0 STOREY 0 [J]
Zone,Meter,Cooling:EnergyTransfer [J]
Zone,Meter,Cooling:EnergyTransfer:Zone:BLOCK LEVEL 9 UNIT 0 STOREY 0 [J]
Zone,Meter,EnergyTransfer:Zone:BLOCK LEVEL 9 UNIT 1 STOREY 0 [J]
Zone,Meter,Heating:EnergyTransfer:Zone:BLOCK LEVEL 9 UNIT 1 STOREY 0 [J]
Zone,Meter,Cooling:EnergyTransfer:Zone:BLOCK LEVEL 9 UNIT 1 STOREY 0 [J]
Zone,Meter,EnergyTransfer:Zone:BLOCK LEVEL 9 UNIT 2 STOREY 0 [J]
Zone,Meter,Heating:EnergyTransfer:Zone:BLOCK LEVEL 9 UNIT 2 STOREY 0 [J]
Zone,Meter,Cooling:EnergyTransfer:Zone:BLOCK LEVEL 9 UNIT 2 STOREY 0 [J]
Zone,Meter,EnergyTransfer:Zone:BLOCK LEVEL 9 UNIT 3 STOREY 0 [J]
Zone,Meter,Heating:EnergyTransfer:Zone:BLOCK LEVEL 9 UNIT 3 STOREY 0 [J]
Zone,Meter,Cooling:EnergyTransfer:Zone:BLOCK LEVEL 9 UNIT 3 STOREY 0 [J]
Zone,Meter,EnergyTransfer:Zone:BLOCK LEVEL 8 UNIT 0 STOREY 0 [J]
Zone,Meter,Heating:EnergyTransfer:Zone:BLOCK LEVEL 8 UNIT 0 STOREY 0 [J]
Zone,Meter,Cooling:EnergyTransfer:Zone:BLOCK LEVEL 8 UNIT 0 STOREY 0 [J]
Zone,Meter,EnergyTransfer:Zone:BLOCK LEVEL 8 UNIT 1 STOREY 0 [J]
Zone,Meter,Heating:EnergyTransfer:Zone:BLOCK LEVEL 8 UNIT 1 STOREY 0 [J]
Zone,Meter,Cooling:EnergyTransfer:Zone:BLOCK LEVEL 8 UNIT 1 STOREY 0 [J]
Zone,Meter,EnergyTransfer:Zone:BLOCK LEVEL 8 UNIT 2 STOREY 0 [J]
Zone,Meter,Heating:EnergyTransfer:Zone:BLOCK LEVEL 8 UNIT 2 STOREY 0 [J]
Zone,Meter,Cooling:EnergyTransfer:Zone:BLOCK LEVEL 8 UNIT 2 STOREY 0 [J]
Zone,Meter,EnergyTransfer:Zone:BLOCK LEVEL 8 UNIT 3 STOREY 0 [J]
Zone,Meter,Heating:EnergyTransfer:Zone:BLOCK LEVEL 8 UNIT 3 STOREY 0 [J]
Zone,Meter,Cooling:EnergyTransfer:Zone:BLOCK LEVEL 8 UNIT 3 STOREY 0 [J]
Zone,Meter,EnergyTransfer:Zone:BLOCK LEVEL 8 UNIT 4 STOREY 0 [J]
Zone,Meter,Heating:EnergyTransfer:Zone:BLOCK LEVEL 8 UNIT 4 STOREY 0 [J]
Zone,Meter,Cooling:EnergyTransfer:Zone:BLOCK LEVEL 8 UNIT 4 STOREY 0 [J]
Zone,Meter,EnergyTransfer:Zone:BLOCK LEVEL 7 UNIT 0 STOREY 0 [J]
Zone,Meter,Heating:EnergyTransfer:Zone:BLOCK LEVEL 7 UNIT 0 STOREY 0 [J]
Zone,Meter,Cooling:EnergyTransfer:Zone:BLOCK LEVEL 7 UNIT 0 STOREY 0 [J]
Zone,Meter,EnergyTransfer:Zone:BLOCK LEVEL 7 UNIT 1 STOREY 0 [J]
Zone,Meter,Heating:EnergyTransfer:Zone:BLOCK LEVEL 7 UNIT 1 STOREY 0 [J]
Zone,Meter,Cooling:EnergyTransfer:Zone:BLOCK LEVEL 7 UNIT 1 STOREY 0 [J]
Zone,Meter,EnergyTransfer:Zone:BLOCK LEVEL 7 UNIT 2 STOREY 0 [J]
Zone,Meter,Heating:EnergyTransfer:Zone:BLOCK LEVEL 7 UNIT 2 STOREY 0 [J]
Zone,Meter,Cooling:EnergyTransfer:Zone:BLOCK LEVEL 7 UNIT 2 STOREY 0 [J]
Zone,Meter,EnergyTransfer:Zone:BLOCK LEVEL 7 UNIT 3 STOREY 0 [J]
Zone,Meter,Heating:EnergyTransfer:Zone:BLOCK LEVEL 7 UNIT 3 STOREY 0 [J]
Zone,Meter,Cooling:EnergyTransfer:Zone:BLOCK LEVEL 7 UNIT 3 STOREY 0 [J]
Zone,Meter,EnergyTransfer:Zone:BLOCK LEVEL 7 UNIT 4 STOREY 0 [J]
Zone,Meter,Heating:EnergyTransfer:Zone:BLOCK LEVEL 7 UNIT 4 STOREY 0 [J]
Zone,Meter,Cooling:EnergyTransfer:Zone:BLOCK LEVEL 7 UNIT 4 STOREY 0 [J]
Zone,Meter,EnergyTransfer:Zone:BLOCK LEVEL 6 UNIT 0 STOREY 0 [J]
Zone,Meter,Heating:EnergyTransfer:Zone:BLOCK LEVEL 6 UNIT 0 STOREY 0 [J]
Zone,Meter,Cooling:EnergyTransfer:Zone:BLOCK LEVEL 6 UNIT 0 STOREY 0 [J]
Zone,Meter,EnergyTransfer:Zone:BLOCK LEVEL 6 UNIT 1 STOREY 0 [J]
Zone,Meter,Heating:EnergyTransfer:Zone:BLOCK LEVEL 6 UNIT 1 STOREY 0 [J]
Zone,Meter,Cooling:EnergyTransfer:Zone:BLOCK LEVEL 6 UNIT 1 STOREY 0 [J]
Zone,Meter,EnergyTransfer:Zone:BLOCK LEVEL 6 UNIT 2 STOREY 0 [J]
Zone,Meter,Heating:EnergyTransfer:Zone:BLOCK LEVEL 6 UNIT 2 STOREY 0 [J]
Zone,Meter,Cooling:EnergyTransfer:Zone:BLOCK LEVEL 6 UNIT 2 STOREY 0 [J]
Zone,Meter,EnergyTransfer:Zone:BLOCK LEVEL 6 UNIT 3 STOREY 0 [J]
Zone,Meter,Heating:EnergyTransfer:Zone:BLOCK LEVEL 6 UNIT 3 STOREY 0 [J]
Zone,Meter,Cooling:EnergyTransfer:Zone:BLOCK LEVEL 6 UNIT 3 STOREY 0 [J]
Zone,Meter,EnergyTransfer:Zone:BLOCK LEVEL 6 UNIT 4 STOREY 0 [J]
Zone,Meter,Heating:EnergyTransfer:Zone:BLOCK LEVEL 6 UNIT 4 STOREY 0 [J]
Zone,Meter,Cooling:EnergyTransfer:Zone:BLOCK LEVEL 6 UNIT 4 STOREY 0 [J]
Zone,Meter,EnergyTransfer:Zone:BLOCK LEVEL 5 UNIT 0 STOREY 0 [J]
Zone,Meter,Heating:EnergyTransfer:Zone:BLOCK LEVEL 5 UNIT 0 STOREY 0 [J]
Zone,Meter,Cooling:EnergyTransfer:Zone:BLOCK LEVEL 5 UNIT 0 STOREY 0 [J]
Zone,Meter,EnergyTransfer:Zone:BLOCK LEVEL 5 UNIT 1 STOREY 0 [J]
Zone,Meter,Heating:EnergyTransfer:Zone:BLOCK LEVEL 5 UNIT 1 STOREY 0 [J]
Zone,Meter,Cooling:EnergyTransfer:Zone:BLOCK LEVEL 5 UNIT 1 STOREY 0 [J]
Zone,Meter,EnergyTransfer:Zone:BLOCK LEVEL 5 UNIT 2 STOREY 0 [J]
Zone,Meter,Heating:EnergyTransfer:Zone:BLOCK LEVEL 5 UNIT 2 STOREY 0 [J]
Zone,Meter,Cooling:EnergyTransfer:Zone:BLOCK LEVEL 5 UNIT 2 STOREY 0 [J]
Zone,Meter,EnergyTransfer:Zone:BLOCK LEVEL 5 UNIT 3 STOREY 0 [J]
Zone,Meter,Heating:EnergyTransfer:Zone:BLOCK LEVEL 5 UNIT 3 STOREY 0 [J]
Zone,Meter,Cooling:EnergyTransfer:Zone:BLOCK LEVEL 5 UNIT 3 STOREY 0 [J]
Zone,Meter,EnergyTransfer:Zone:BLOCK LEVEL 5 UNIT 4 STOREY 0 [J]
Zone,Meter,Heating:EnergyTransfer:Zone:BLOCK LEVEL 5 UNIT 4 STOREY 0 [J]
Zone,Meter,Cooling:EnergyTransfer:Zone:BLOCK LEVEL 5 UNIT 4 STOREY 0 [J]
Zone,Meter,EnergyTransfer:Zone:BLOCK LEVEL 4 UNIT 0 STOREY 0 [J]
Zone,Meter,Heating:EnergyTransfer:Zone:BLOCK LEVEL 4 UNIT 0 STOREY 0 [J]
Zone,Meter,Cooling:EnergyTransfer:Zone:BLOCK LEVEL 4 UNIT 0 STOREY 0 [J]
Zone,Meter,EnergyTransfer:Zone:BLOCK LEVEL 4 UNIT 1 STOREY 0 [J]
Zone,Meter,Heating:EnergyTransfer:Zone:BLOCK LEVEL 4 UNIT 1 STOREY 0 [J]
Zone,Meter,Cooling:EnergyTransfer:Zone:BLOCK LEVEL 4 UNIT 1 STOREY 0 [J]
Zone,Meter,EnergyTransfer:Zone:BLOCK LEVEL 4 UNIT 2 STOREY 0 [J]
Zone,Meter,Heating:EnergyTransfer:Zone:BLOCK LEVEL 4 UNIT 2 STOREY 0 [J]
Zone,Meter,Cooling:EnergyTransfer:Zone:BLOCK LEVEL 4 UNIT 2 STOREY 0 [J]
Zone,Meter,EnergyTransfer:Zone:BLOCK LEVEL 4 UNIT 3 STOREY 0 [J]
Zone,Meter,Heating:EnergyTransfer:Zone:BLOCK LEVEL 4 UNIT 3 STOREY 0 [J]
Zone,Meter,Cooling:EnergyTransfer:Zone:BLOCK LEVEL 4 UNIT 3 STOREY 0 [J]
Zone,Meter,EnergyTransfer:Zone:BLOCK LEVEL 4 UNIT 4 STOREY 0 [J]
Zone,Meter,Heating:EnergyTransfer:Zone:BLOCK LEVEL 4 UNIT 4 STOREY 0 [J]
Zone,Meter,Cooling:EnergyTransfer:Zone:BLOCK LEVEL 4 UNIT 4 STOREY 0 [J]
Zone,Meter,EnergyTransfer:Zone:BLOCK LEVEL 3 UNIT 0 STOREY 0 [J]
Zone,Meter,Heating:EnergyTransfer:Zone:BLOCK LEVEL 3 UNIT 0 STOREY 0 [J]
Zone,Meter,Cooling:EnergyTransfer:Zone:BLOCK LEVEL 3 UNIT 0 STOREY 0 [J]
Zone,Meter,EnergyTransfer:Zone:BLOCK LEVEL 3 UNIT 1 STOREY 0 [J]
Zone,Meter,Heating:EnergyTransfer:Zone:BLOCK LEVEL 3 UNIT 1 STOREY 0 [J]
Zone,Meter,Cooling:EnergyTransfer:Zone:BLOCK LEVEL 3 UNIT 1 STOREY 0 [J]
Zone,Meter,EnergyTransfer:Zone:BLOCK LEVEL 3 UNIT 2 STOREY 0 [J]
Zone,Meter,Heating:EnergyTransfer:Zone:BLOCK LEVEL 3 UNIT 2 STOREY 0 [J]
Zone,Meter,Cooling:EnergyTransfer:Zone:BLOCK LEVEL 3 UNIT 2 STOREY 0 [J]
Zone,Meter,EnergyTransfer:Zone:BLOCK LEVEL 3 UNIT 3 STOREY 0 [J]
Zone,Meter,Heating:EnergyTransfer:Zone:BLOCK LEVEL 3 UNIT 3 STOREY 0 [J]
Zone,Meter,Cooling:EnergyTransfer:Zone:BLOCK LEVEL 3 UNIT 3 STOREY 0 [J]
Zone,Meter,EnergyTransfer:Zone:BLOCK LEVEL 3 UNIT 4 STOREY 0 [J]
Zone,Meter,Heating:EnergyTransfer:Zone:BLOCK LEVEL 3 UNIT 4 STOREY 0 [J]
Zone,Meter,Cooling:EnergyTransfer:Zone:BLOCK LEVEL 3 UNIT 4 STOREY 0 [J]
Zone,Meter,EnergyTransfer:Zone:BLOCK LEVEL 2 UNIT 0 STOREY 0 [J]
Zone,Meter,Heating:EnergyTransfer:Zone:BLOCK LEVEL 2 UNIT 0 STOREY 0 [J]
Zone,Meter,Cooling:EnergyTransfer:Zone:BLOCK LEVEL 2 UNIT 0 STOREY 0 [J]
Zone,Meter,EnergyTransfer:Zone:BLOCK LEVEL 2 UNIT 1 STOREY 0 [J]
Zone,Meter,Heating:EnergyTransfer:Zone:BLOCK LEVEL 2 UNIT 1 STOREY 0 [J]
Zone,Meter,Cooling:EnergyTransfer:Zone:BLOCK LEVEL 2 UNIT 1 STOREY 0 [J]
Zone,Meter,EnergyTransfer:Zone:BLOCK LEVEL 2 UNIT 2 STOREY 0 [J]
Zone,Meter,Heating:EnergyTransfer:Zone:BLOCK LEVEL 2 UNIT 2 STOREY 0 [J]
Zone,Meter,Cooling:EnergyTransfer:Zone:BLOCK LEVEL 2 UNIT 2 STOREY 0 [J]
Zone,Meter,EnergyTransfer:Zone:BLOCK LEVEL 2 UNIT 3 STOREY 0 [J]
Zone,Meter,Heating:EnergyTransfer:Zone:BLOCK LEVEL 2 UNIT 3 STOREY 0 [J]
Zone,Meter,Cooling:EnergyTransfer:Zone:BLOCK LEVEL 2 UNIT 3 STOREY 0 [J]
Zone,Meter,EnergyTransfer:Zone:BLOCK LEVEL 1 UNIT 0 STOREY 0 [J]
Zone,Meter,Heating:EnergyTransfer:Zone:BLOCK LEVEL 1 UNIT 0 STOREY 0 [J]
Zone,Meter,Cooling:EnergyTransfer:Zone:BLOCK LEVEL 1 UNIT 0 STOREY 0 [J]
Zone,Meter,EnergyTransfer:Zone:BLOCK LEVEL 1 UNIT 1 STOREY 0 [J]
Zone,Meter,Heating:EnergyTransfer:Zone:BLOCK LEVEL 1 UNIT 1 STOREY 0 [J]
Zone,Meter,Cooling:EnergyTransfer:Zone:BLOCK LEVEL 1 UNIT 1 STOREY 0 [J]
Zone,Meter,EnergyTransfer:Zone:BLOCK LEVEL 1 UNIT 2 STOREY 0 [J]
Zone,Meter,Heating:EnergyTransfer:Zone:BLOCK LEVEL 1 UNIT 2 STOREY 0 [J]
Zone,Meter,Cooling:EnergyTransfer:Zone:BLOCK LEVEL 1 UNIT 2 STOREY 0 [J]
Zone,Meter,EnergyTransfer:Zone:BLOCK LEVEL 1 UNIT 3 STOREY 0 [J]
Zone,Meter,Heating:EnergyTransfer:Zone:BLOCK LEVEL 1 UNIT 3 STOREY 0 [J]
Zone,Meter,Cooling:EnergyTransfer:Zone:BLOCK LEVEL 1 UNIT 3 STOREY 0 [J]
Zone,Meter,EnergyTransfer:Zone:BLOCK LEVEL 1 UNIT 4 STOREY 0 [J]
Zone,Meter,Heating:EnergyTransfer:Zone:BLOCK LEVEL 1 UNIT 4 STOREY 0 [J]
Zone,Meter,Cooling:EnergyTransfer:Zone:BLOCK LEVEL 1 UNIT 4 STOREY 0 [J]
Zone,Meter,EnergyTransfer:Zone:BLOCK LEVEL 1 UNIT 5 STOREY 0 [J]
Zone,Meter,Heating:EnergyTransfer:Zone:BLOCK LEVEL 1 UNIT 5 STOREY 0 [J]
Zone,Meter,Cooling:EnergyTransfer:Zone:BLOCK LEVEL 1 UNIT 5 STOREY 0 [J]
Zone,Meter,EnergyTransfer:Zone:BLOCK LEVEL 1 UNIT 6 STOREY 0 [J]
Zone,Meter,Heating:EnergyTransfer:Zone:BLOCK LEVEL 1 UNIT 6 STOREY 0 [J]
Zone,Meter,Cooling:EnergyTransfer:Zone:BLOCK LEVEL 1 UNIT 6 STOREY 0 [J]
Zone,Meter,EnergyTransfer:Zone:BLOCK LEVEL 1 UNIT 7 STOREY 0 [J]
Zone,Meter,Heating:EnergyTransfer:Zone:BLOCK LEVEL 1 UNIT 7 STOREY 0 [J]
Zone,Meter,Cooling:EnergyTransfer:Zone:BLOCK LEVEL 1 UNIT 7 STOREY 0 [J]
Zone,Meter,EnergyTransfer:Zone:BLOCK LEVEL 1 UNIT 8 STOREY 0 [J]
Zone,Meter,Heating:EnergyTransfer:Zone:BLOCK LEVEL 1 UNIT 8 STOREY 0 [J]
Zone,Meter,Cooling:EnergyTransfer:Zone:BLOCK LEVEL 1 UNIT 8 STOREY 0 [J]
Zone,Meter,Carbon Equivalent:Facility [kg]
Zone,Meter,CarbonEquivalentEmissions:Carbon Equivalent [kg]
