Program Version,EnergyPlus, Version 8.8.0-7c3bbe4830, YMD=2019.10.07 11:47,IDD_Version 8.8.0
   ** Warning ** ManageSizing: For a zone sizing run, there must be at least 1 Sizing:Zone input object. SimulationControl Zone Sizing option ignored.
   ** Warning ** ManageSizing: For a plant sizing run, there must be at least 1 Sizing:Plant object input. SimulationControl Plant Sizing option ignored.
   ** Warning ** GetHTSurfaceData: Surfaces with interface to Ground found but no "Ground Temperatures" were input.
   **   ~~~   ** Found first in surface=BLOCK COMERCIO1_0 STOREY 0 FLOOR 0001
   **   ~~~   ** Defaults, constant throughout the year of (18.0) will be used.
   ** Warning ** GetSurfaceData: There are 8 coincident/collinear vertices; These have been deleted unless the deletion would bring the number of surface sides < 3.
   **   ~~~   ** For explicit details on each problem surface, use Output:Diagnostics,DisplayExtraWarnings;
   ** Warning ** CalculateZoneVolume: 1 zone is not fully enclosed. For more details use:  Output:Diagnostics,DisplayExtrawarnings; 
   ** Warning ** CheckUsedConstructions: There are 6 nominally unused constructions in input.
   **   ~~~   ** For explicit details on each unused construction, use Output:Diagnostics,DisplayExtraWarnings;
   ** Severe  ** Problem in interior solar distribution calculation (CHKBKS)
   **   ~~~   **    Solar Distribution = FullInteriorExterior will not work in Zone=VIVIENDA10_0
   **   ~~~   **    because vertex 1 of back surface=BLOCK VIVIENDA10_0 STOREY 0 WALL 0011 is in front of receiving surface=BLOCK VIVIENDA10_0 STOREY 0 WALL 0010
   **   ~~~   **    (Dot Product indicator=30.5476)
   **   ~~~   **    Check surface geometry; if OK, use Solar Distribution = FullExterior instead.
   ** Severe  ** Problem in interior solar distribution calculation (CHKBKS)
   **   ~~~   **    Solar Distribution = FullInteriorExterior will not work in Zone=VIVIENDA10_0
   **   ~~~   **    because vertex 4 of back surface=BLOCK VIVIENDA10_0 STOREY 0 WALL 0011 is in front of receiving surface=BLOCK VIVIENDA10_0 STOREY 0 WALL 0010
   **   ~~~   **    (Dot Product indicator=30.5476)
   **   ~~~   **    Check surface geometry; if OK, use Solar Distribution = FullExterior instead.
   ** Severe  ** Problem in interior solar distribution calculation (CHKBKS)
   **   ~~~   **    Solar Distribution = FullInteriorExterior will not work in Zone=VIVIENDA10_0
   **   ~~~   **    because vertex 1 of back surface=BLOCK VIVIENDA10_0 STOREY 0 WALL 0011 WINDOW is in front of receiving surface=BLOCK VIVIENDA10_0 STOREY 0 WALL 0010
   **   ~~~   **    (Dot Product indicator=0.0153)
   **   ~~~   **    Check surface geometry; if OK, use Solar Distribution = FullExterior instead.
   ** Severe  ** Problem in interior solar distribution calculation (CHKBKS)
   **   ~~~   **    Solar Distribution = FullInteriorExterior will not work in Zone=VIVIENDA10_0
   **   ~~~   **    because vertex 2 of back surface=BLOCK VIVIENDA10_0 STOREY 0 WALL 0011 WINDOW is in front of receiving surface=BLOCK VIVIENDA10_0 STOREY 0 WALL 0010
   **   ~~~   **    (Dot Product indicator=0.0153)
   **   ~~~   **    Check surface geometry; if OK, use Solar Distribution = FullExterior instead.
   ** Severe  ** Problem in interior solar distribution calculation (CHKBKS)
   **   ~~~   **    Solar Distribution = FullInteriorExterior will not work in Zone=VIVIENDA10_0
   **   ~~~   **    because vertex 3 of back surface=BLOCK VIVIENDA10_0 STOREY 0 WALL 0011 WINDOW is in front of receiving surface=BLOCK VIVIENDA10_0 STOREY 0 WALL 0010
   **   ~~~   **    (Dot Product indicator=30.5323)
   **   ~~~   **    Check surface geometry; if OK, use Solar Distribution = FullExterior instead.
   ** Severe  ** Problem in interior solar distribution calculation (CHKBKS)
   **   ~~~   **    Solar Distribution = FullInteriorExterior will not work in Zone=VIVIENDA10_0
   **   ~~~   **    because vertex 4 of back surface=BLOCK VIVIENDA10_0 STOREY 0 WALL 0011 WINDOW is in front of receiving surface=BLOCK VIVIENDA10_0 STOREY 0 WALL 0010
   **   ~~~   **    (Dot Product indicator=30.5323)
   **   ~~~   **    Check surface geometry; if OK, use Solar Distribution = FullExterior instead.
   ** Severe  ** Problem in interior solar distribution calculation (CHKBKS)
   **   ~~~   **    Solar Distribution = FullInteriorExterior will not work in Zone=VIVIENDA10_0
   **   ~~~   **    because vertex 1 of back surface=BLOCK VIVIENDA10_0 STOREY 0 WALL 0012 is in front of receiving surface=BLOCK VIVIENDA10_0 STOREY 0 WALL 0010
   **   ~~~   **    (Dot Product indicator=24.1055)
   **   ~~~   **    Check surface geometry; if OK, use Solar Distribution = FullExterior instead.
   ** Severe  ** Problem in interior solar distribution calculation (CHKBKS)
   **   ~~~   **    Solar Distribution = FullInteriorExterior will not work in Zone=VIVIENDA10_0
   **   ~~~   **    because vertex 2 of back surface=BLOCK VIVIENDA10_0 STOREY 0 WALL 0012 is in front of receiving surface=BLOCK VIVIENDA10_0 STOREY 0 WALL 0010
   **   ~~~   **    (Dot Product indicator=30.5476)
   **   ~~~   **    Check surface geometry; if OK, use Solar Distribution = FullExterior instead.
   ** Severe  ** Problem in interior solar distribution calculation (CHKBKS)
   **   ~~~   **    Solar Distribution = FullInteriorExterior will not work in Zone=VIVIENDA10_0
   **   ~~~   **    because vertex 3 of back surface=BLOCK VIVIENDA10_0 STOREY 0 WALL 0012 is in front of receiving surface=BLOCK VIVIENDA10_0 STOREY 0 WALL 0010
   **   ~~~   **    (Dot Product indicator=30.5476)
   **   ~~~   **    Check surface geometry; if OK, use Solar Distribution = FullExterior instead.
   ** Severe  ** Problem in interior solar distribution calculation (CHKBKS)
   **   ~~~   **    Solar Distribution = FullInteriorExterior will not work in Zone=VIVIENDA10_0
   **   ~~~   **    because vertex 4 of back surface=BLOCK VIVIENDA10_0 STOREY 0 WALL 0012 is in front of receiving surface=BLOCK VIVIENDA10_0 STOREY 0 WALL 0010
   **   ~~~   **    (Dot Product indicator=24.1055)
   **   ~~~   **    Check surface geometry; if OK, use Solar Distribution = FullExterior instead.
   ** Severe  ** Problem in interior solar distribution calculation (CHKBKS)
   **   ~~~   **    Solar Distribution = FullInteriorExterior will not work in Zone=VIVIENDA10_0
   **   ~~~   **    because vertex 1 of back surface=BLOCK VIVIENDA10_0 STOREY 0 WALL 0012 WINDOW is in front of receiving surface=BLOCK VIVIENDA10_0 STOREY 0 WALL 0010
   **   ~~~   **    (Dot Product indicator=30.5444)
   **   ~~~   **    Check surface geometry; if OK, use Solar Distribution = FullExterior instead.
   ** Severe  ** Problem in interior solar distribution calculation (CHKBKS)
   **   ~~~   **    Solar Distribution = FullInteriorExterior will not work in Zone=VIVIENDA10_0
   **   ~~~   **    because vertex 2 of back surface=BLOCK VIVIENDA10_0 STOREY 0 WALL 0012 WINDOW is in front of receiving surface=BLOCK VIVIENDA10_0 STOREY 0 WALL 0010
   **   ~~~   **    (Dot Product indicator=30.5444)
   **   ~~~   **    Check surface geometry; if OK, use Solar Distribution = FullExterior instead.
   ** Severe  ** Problem in interior solar distribution calculation (CHKBKS)
   **   ~~~   **    Solar Distribution = FullInteriorExterior will not work in Zone=VIVIENDA10_0
   **   ~~~   **    because vertex 3 of back surface=BLOCK VIVIENDA10_0 STOREY 0 WALL 0012 WINDOW is in front of receiving surface=BLOCK VIVIENDA10_0 STOREY 0 WALL 0010
   **   ~~~   **    (Dot Product indicator=24.1087)
   **   ~~~   **    Check surface geometry; if OK, use Solar Distribution = FullExterior instead.
   ** Severe  ** Problem in interior solar distribution calculation (CHKBKS)
   **   ~~~   **    Solar Distribution = FullInteriorExterior will not work in Zone=VIVIENDA10_0
   **   ~~~   **    because vertex 4 of back surface=BLOCK VIVIENDA10_0 STOREY 0 WALL 0012 WINDOW is in front of receiving surface=BLOCK VIVIENDA10_0 STOREY 0 WALL 0010
   **   ~~~   **    (Dot Product indicator=24.1087)
   **   ~~~   **    Check surface geometry; if OK, use Solar Distribution = FullExterior instead.
   ** Severe  ** Problem in interior solar distribution calculation (CHKBKS)
   **   ~~~   **    Solar Distribution = FullInteriorExterior will not work in Zone=VIVIENDA10_0
   **   ~~~   **    because vertex 1 of back surface=BLOCK VIVIENDA10_0 STOREY 0 WALL 0013 is in front of receiving surface=BLOCK VIVIENDA10_0 STOREY 0 WALL 0010
   **   ~~~   **    (Dot Product indicator=18.0951)
   **   ~~~   **    Check surface geometry; if OK, use Solar Distribution = FullExterior instead.
   ** Severe  ** Problem in interior solar distribution calculation (CHKBKS)
   **   ~~~   **    Solar Distribution = FullInteriorExterior will not work in Zone=VIVIENDA10_0
   **   ~~~   **    because vertex 2 of back surface=BLOCK VIVIENDA10_0 STOREY 0 WALL 0013 is in front of receiving surface=BLOCK VIVIENDA10_0 STOREY 0 WALL 0010
   **   ~~~   **    (Dot Product indicator=24.1055)
   **   ~~~   **    Check surface geometry; if OK, use Solar Distribution = FullExterior instead.
   ** Severe  ** Problem in interior solar distribution calculation (CHKBKS)
   **   ~~~   **    Solar Distribution = FullInteriorExterior will not work in Zone=VIVIENDA10_0
   **   ~~~   **    because vertex 3 of back surface=BLOCK VIVIENDA10_0 STOREY 0 WALL 0013 is in front of receiving surface=BLOCK VIVIENDA10_0 STOREY 0 WALL 0010
   **   ~~~   **    (Dot Product indicator=24.1055)
   **   ~~~   **    Check surface geometry; if OK, use Solar Distribution = FullExterior instead.
   ** Severe  ** Problem in interior solar distribution calculation (CHKBKS)
   **   ~~~   **    Solar Distribution = FullInteriorExterior will not work in Zone=VIVIENDA10_0
   **   ~~~   **    because vertex 4 of back surface=BLOCK VIVIENDA10_0 STOREY 0 WALL 0013 is in front of receiving surface=BLOCK VIVIENDA10_0 STOREY 0 WALL 0010
   **   ~~~   **    (Dot Product indicator=18.0951)
   **   ~~~   **    Check surface geometry; if OK, use Solar Distribution = FullExterior instead.
   ** Severe  ** Problem in interior solar distribution calculation (CHKBKS)
   **   ~~~   **    Solar Distribution = FullInteriorExterior will not work in Zone=VIVIENDA10_0
   **   ~~~   **    because vertex 2 of back surface=BLOCK VIVIENDA10_0 STOREY 0 WALL 0014 is in front of receiving surface=BLOCK VIVIENDA10_0 STOREY 0 WALL 0010
   **   ~~~   **    (Dot Product indicator=18.0951)
   **   ~~~   **    Check surface geometry; if OK, use Solar Distribution = FullExterior instead.
   ** Severe  ** Problem in interior solar distribution calculation (CHKBKS)
   **   ~~~   **    Solar Distribution = FullInteriorExterior will not work in Zone=VIVIENDA10_0
   **   ~~~   **    because vertex 3 of back surface=BLOCK VIVIENDA10_0 STOREY 0 WALL 0014 is in front of receiving surface=BLOCK VIVIENDA10_0 STOREY 0 WALL 0010
   **   ~~~   **    (Dot Product indicator=18.0951)
   **   ~~~   **    Check surface geometry; if OK, use Solar Distribution = FullExterior instead.
   ** Severe  ** Problem in interior solar distribution calculation (CHKBKS)
   **   ~~~   **    Solar Distribution = FullInteriorExterior will not work in Zone=VIVIENDA10_0
   **   ~~~   **    because vertex 1 of back surface=BLOCK VIVIENDA10_0 STOREY 0 FLOOR 0001 is in front of receiving surface=BLOCK VIVIENDA10_0 STOREY 0 WALL 0010
   **   ~~~   **    (Dot Product indicator=24.1055)
   **   ~~~   **    Check surface geometry; if OK, use Solar Distribution = FullExterior instead.
   ** Severe  ** Problem in interior solar distribution calculation (CHKBKS)
   **   ~~~   **    Solar Distribution = FullInteriorExterior will not work in Zone=VIVIENDA10_0
   **   ~~~   **    because vertex 2 of back surface=BLOCK VIVIENDA10_0 STOREY 0 FLOOR 0001 is in front of receiving surface=BLOCK VIVIENDA10_0 STOREY 0 WALL 0010
   **   ~~~   **    (Dot Product indicator=30.5476)
   **   ~~~   **    Check surface geometry; if OK, use Solar Distribution = FullExterior instead.
   ** Severe  ** Problem in interior solar distribution calculation (CHKBKS)
   **   ~~~   **    Solar Distribution = FullInteriorExterior will not work in Zone=VIVIENDA10_0
   **   ~~~   **    because vertex 20 of back surface=BLOCK VIVIENDA10_0 STOREY 0 FLOOR 0001 is in front of receiving surface=BLOCK VIVIENDA10_0 STOREY 0 WALL 0010
   **   ~~~   **    (Dot Product indicator=18.0951)
   **   ~~~   **    Check surface geometry; if OK, use Solar Distribution = FullExterior instead.
   ** Severe  ** Problem in interior solar distribution calculation (CHKBKS)
   **   ~~~   **    Solar Distribution = FullInteriorExterior will not work in Zone=VIVIENDA10_0
   **   ~~~   **    because vertex 5 of back surface=BLOCK VIVIENDA10_0 STOREY 0 ROOF 0001 is in front of receiving surface=BLOCK VIVIENDA10_0 STOREY 0 WALL 0010
   **   ~~~   **    (Dot Product indicator=30.5476)
   **   ~~~   **    Check surface geometry; if OK, use Solar Distribution = FullExterior instead.
   ** Severe  ** Problem in interior solar distribution calculation (CHKBKS)
   **   ~~~   **    Solar Distribution = FullInteriorExterior will not work in Zone=VIVIENDA10_0
   **   ~~~   **    because vertex 6 of back surface=BLOCK VIVIENDA10_0 STOREY 0 ROOF 0001 is in front of receiving surface=BLOCK VIVIENDA10_0 STOREY 0 WALL 0010
   **   ~~~   **    (Dot Product indicator=24.1055)
   **   ~~~   **    Check surface geometry; if OK, use Solar Distribution = FullExterior instead.
   ** Severe  ** Problem in interior solar distribution calculation (CHKBKS)
   **   ~~~   **    Solar Distribution = FullInteriorExterior will not work in Zone=VIVIENDA10_0
   **   ~~~   **    because vertex 7 of back surface=BLOCK VIVIENDA10_0 STOREY 0 ROOF 0001 is in front of receiving surface=BLOCK VIVIENDA10_0 STOREY 0 WALL 0010
   **   ~~~   **    (Dot Product indicator=18.0951)
   **   ~~~   **    Check surface geometry; if OK, use Solar Distribution = FullExterior instead.
   ** Severe  ** Problem in interior solar distribution calculation (CHKBKS)
   **   ~~~   **    Solar Distribution = FullInteriorExterior will not work in Zone=VIVIENDA10_0
   **   ~~~   **    because vertex 1 of back surface=BLOCK VIVIENDA10_0 STOREY 0 WALL 0008 is in front of receiving surface=BLOCK VIVIENDA10_0 STOREY 0 WALL 0011
   **   ~~~   **    (Dot Product indicator=25.4494)
   **   ~~~   **    Check surface geometry; if OK, use Solar Distribution = FullExterior instead.
   ** Severe  ** Problem in interior solar distribution calculation (CHKBKS)
   **   ~~~   **    Solar Distribution = FullInteriorExterior will not work in Zone=VIVIENDA10_0
   **   ~~~   **    because vertex 4 of back surface=BLOCK VIVIENDA10_0 STOREY 0 WALL 0008 is in front of receiving surface=BLOCK VIVIENDA10_0 STOREY 0 WALL 0011
   **   ~~~   **    (Dot Product indicator=25.4494)
   **   ~~~   **    Check surface geometry; if OK, use Solar Distribution = FullExterior instead.
   ** Severe  ** Problem in interior solar distribution calculation (CHKBKS)
   **   ~~~   **    Solar Distribution = FullInteriorExterior will not work in Zone=VIVIENDA10_0
   **   ~~~   **    because vertex 1 of back surface=BLOCK VIVIENDA10_0 STOREY 0 WALL 0009 is in front of receiving surface=BLOCK VIVIENDA10_0 STOREY 0 WALL 0011
   **   ~~~   **    (Dot Product indicator=30.5476)
   **   ~~~   **    Check surface geometry; if OK, use Solar Distribution = FullExterior instead.
   ** Severe  ** Problem in interior solar distribution calculation (CHKBKS)
   **   ~~~   **    Solar Distribution = FullInteriorExterior will not work in Zone=VIVIENDA10_0
   **   ~~~   **    because vertex 2 of back surface=BLOCK VIVIENDA10_0 STOREY 0 WALL 0009 is in front of receiving surface=BLOCK VIVIENDA10_0 STOREY 0 WALL 0011
   **   ~~~   **    (Dot Product indicator=25.4494)
   **   ~~~   **    Check surface geometry; if OK, use Solar Distribution = FullExterior instead.
   ** Severe  ** Problem in interior solar distribution calculation (CHKBKS)
   **   ~~~   **    Solar Distribution = FullInteriorExterior will not work in Zone=VIVIENDA10_0
   **   ~~~   **    because vertex 3 of back surface=BLOCK VIVIENDA10_0 STOREY 0 WALL 0009 is in front of receiving surface=BLOCK VIVIENDA10_0 STOREY 0 WALL 0011
   **   ~~~   **    (Dot Product indicator=25.4494)
   **   ~~~   **    Check surface geometry; if OK, use Solar Distribution = FullExterior instead.
   ** Severe  ** Problem in interior solar distribution calculation (CHKBKS)
   **   ~~~   **    Solar Distribution = FullInteriorExterior will not work in Zone=VIVIENDA10_0
   **   ~~~   **    because vertex 4 of back surface=BLOCK VIVIENDA10_0 STOREY 0 WALL 0009 is in front of receiving surface=BLOCK VIVIENDA10_0 STOREY 0 WALL 0011
   **   ~~~   **    (Dot Product indicator=30.5476)
   **   ~~~   **    Check surface geometry; if OK, use Solar Distribution = FullExterior instead.
   ** Severe  ** Problem in interior solar distribution calculation (CHKBKS)
   **   ~~~   **    Solar Distribution = FullInteriorExterior will not work in Zone=VIVIENDA10_0
   **   ~~~   **    because vertex 1 of back surface=BLOCK VIVIENDA10_0 STOREY 0 WALL 0009 WINDOW is in front of receiving surface=BLOCK VIVIENDA10_0 STOREY 0 WALL 0011
   **   ~~~   **    (Dot Product indicator=25.4519)
   **   ~~~   **    Check surface geometry; if OK, use Solar Distribution = FullExterior instead.
   ** Severe  ** Problem in interior solar distribution calculation (CHKBKS)
   **   ~~~   **    Solar Distribution = FullInteriorExterior will not work in Zone=VIVIENDA10_0
   **   ~~~   **    because vertex 2 of back surface=BLOCK VIVIENDA10_0 STOREY 0 WALL 0009 WINDOW is in front of receiving surface=BLOCK VIVIENDA10_0 STOREY 0 WALL 0011
   **   ~~~   **    (Dot Product indicator=25.4519)
   **   ~~~   **    Check surface geometry; if OK, use Solar Distribution = FullExterior instead.
   ** Severe  ** Problem in interior solar distribution calculation (CHKBKS)
   **   ~~~   **    Solar Distribution = FullInteriorExterior will not work in Zone=VIVIENDA10_0
   **   ~~~   **    because vertex 3 of back surface=BLOCK VIVIENDA10_0 STOREY 0 WALL 0009 WINDOW is in front of receiving surface=BLOCK VIVIENDA10_0 STOREY 0 WALL 0011
   **   ~~~   **    (Dot Product indicator=30.5450)
   **   ~~~   **    Check surface geometry; if OK, use Solar Distribution = FullExterior instead.
   ** Severe  ** Problem in interior solar distribution calculation (CHKBKS)
   **   ~~~   **    Solar Distribution = FullInteriorExterior will not work in Zone=VIVIENDA10_0
   **   ~~~   **    because vertex 4 of back surface=BLOCK VIVIENDA10_0 STOREY 0 WALL 0009 WINDOW is in front of receiving surface=BLOCK VIVIENDA10_0 STOREY 0 WALL 0011
   **   ~~~   **    (Dot Product indicator=30.5450)
   **   ~~~   **    Check surface geometry; if OK, use Solar Distribution = FullExterior instead.
   ** Severe  ** Problem in interior solar distribution calculation (CHKBKS)
   **   ~~~   **    Solar Distribution = FullInteriorExterior will not work in Zone=VIVIENDA10_0
   **   ~~~   **    because vertex 2 of back surface=BLOCK VIVIENDA10_0 STOREY 0 WALL 0010 is in front of receiving surface=BLOCK VIVIENDA10_0 STOREY 0 WALL 0011
   **   ~~~   **    (Dot Product indicator=30.5476)
   **   ~~~   **    Check surface geometry; if OK, use Solar Distribution = FullExterior instead.
   ** Severe  ** Problem in interior solar distribution calculation (CHKBKS)
   **   ~~~   **    Solar Distribution = FullInteriorExterior will not work in Zone=VIVIENDA10_0
   **   ~~~   **    because vertex 3 of back surface=BLOCK VIVIENDA10_0 STOREY 0 WALL 0010 is in front of receiving surface=BLOCK VIVIENDA10_0 STOREY 0 WALL 0011
   **   ~~~   **    (Dot Product indicator=30.5476)
   **   ~~~   **    Check surface geometry; if OK, use Solar Distribution = FullExterior instead.
   ** Severe  ** Problem in interior solar distribution calculation (CHKBKS)
   **   ~~~   **    Solar Distribution = FullInteriorExterior will not work in Zone=VIVIENDA10_0
   **   ~~~   **    because vertex 1 of back surface=BLOCK VIVIENDA10_0 STOREY 0 WALL 0010 WINDOW is in front of receiving surface=BLOCK VIVIENDA10_0 STOREY 0 WALL 0011
   **   ~~~   **    (Dot Product indicator=30.5323)
   **   ~~~   **    Check surface geometry; if OK, use Solar Distribution = FullExterior instead.
   ** Severe  ** Problem in interior solar distribution calculation (CHKBKS)
   **   ~~~   **    Solar Distribution = FullInteriorExterior will not work in Zone=VIVIENDA10_0
   **   ~~~   **    because vertex 2 of back surface=BLOCK VIVIENDA10_0 STOREY 0 WALL 0010 WINDOW is in front of receiving surface=BLOCK VIVIENDA10_0 STOREY 0 WALL 0011
   **   ~~~   **    (Dot Product indicator=30.5323)
   **   ~~~   **    Check surface geometry; if OK, use Solar Distribution = FullExterior instead.
   ** Severe  ** Problem in interior solar distribution calculation (CHKBKS)
   **   ~~~   **    Solar Distribution = FullInteriorExterior will not work in Zone=VIVIENDA10_0
   **   ~~~   **    because vertex 3 of back surface=BLOCK VIVIENDA10_0 STOREY 0 WALL 0010 WINDOW is in front of receiving surface=BLOCK VIVIENDA10_0 STOREY 0 WALL 0011
   **   ~~~   **    (Dot Product indicator=0.0153)
   **   ~~~   **    Check surface geometry; if OK, use Solar Distribution = FullExterior instead.
   ** Severe  ** Problem in interior solar distribution calculation (CHKBKS)
   **   ~~~   **    Solar Distribution = FullInteriorExterior will not work in Zone=VIVIENDA10_0
   **   ~~~   **    because vertex 4 of back surface=BLOCK VIVIENDA10_0 STOREY 0 WALL 0010 WINDOW is in front of receiving surface=BLOCK VIVIENDA10_0 STOREY 0 WALL 0011
   **   ~~~   **    (Dot Product indicator=0.0153)
   **   ~~~   **    Check surface geometry; if OK, use Solar Distribution = FullExterior instead.
   ** Severe  ** Problem in interior solar distribution calculation (CHKBKS)
   **   ~~~   **    Solar Distribution = FullInteriorExterior will not work in Zone=VIVIENDA10_0
   **   ~~~   **    because vertex 4 of back surface=BLOCK VIVIENDA10_0 STOREY 0 FLOOR 0001 is in front of receiving surface=BLOCK VIVIENDA10_0 STOREY 0 WALL 0011
   **   ~~~   **    (Dot Product indicator=30.5476)
   **   ~~~   **    Check surface geometry; if OK, use Solar Distribution = FullExterior instead.
   ** Severe  ** Problem in interior solar distribution calculation (CHKBKS)
   **   ~~~   **    Solar Distribution = FullInteriorExterior will not work in Zone=VIVIENDA10_0
   **   ~~~   **    because vertex 5 of back surface=BLOCK VIVIENDA10_0 STOREY 0 FLOOR 0001 is in front of receiving surface=BLOCK VIVIENDA10_0 STOREY 0 WALL 0011
   **   ~~~   **    (Dot Product indicator=25.4494)
   **   ~~~   **    Check surface geometry; if OK, use Solar Distribution = FullExterior instead.
   ** Severe  ** Problem in interior solar distribution calculation (CHKBKS)
   **   ~~~   **    Solar Distribution = FullInteriorExterior will not work in Zone=VIVIENDA10_0
   **   ~~~   **    because vertex 2 of back surface=BLOCK VIVIENDA10_0 STOREY 0 ROOF 0001 is in front of receiving surface=BLOCK VIVIENDA10_0 STOREY 0 WALL 0011
   **   ~~~   **    (Dot Product indicator=25.4494)
   **   ~~~   **    Check surface geometry; if OK, use Solar Distribution = FullExterior instead.
   ** Severe  ** Problem in interior solar distribution calculation (CHKBKS)
   **   ~~~   **    Solar Distribution = FullInteriorExterior will not work in Zone=VIVIENDA10_0
   **   ~~~   **    because vertex 3 of back surface=BLOCK VIVIENDA10_0 STOREY 0 ROOF 0001 is in front of receiving surface=BLOCK VIVIENDA10_0 STOREY 0 WALL 0011
   **   ~~~   **    (Dot Product indicator=30.5476)
   **   ~~~   **    Check surface geometry; if OK, use Solar Distribution = FullExterior instead.
   ** Severe  ** Problem in interior solar distribution calculation (CHKBKS)
   **   ~~~   **    Solar Distribution = FullInteriorExterior will not work in Zone=VIVIENDA10_0
   **   ~~~   **    because vertex 1 of back surface=BLOCK VIVIENDA10_0 STOREY 0 WALL 0015 is in front of receiving surface=BLOCK VIVIENDA10_0 STOREY 0 WALL 0012
   **   ~~~   **    (Dot Product indicator=0.0141)
   **   ~~~   **    Check surface geometry; if OK, use Solar Distribution = FullExterior instead.
   ** Severe  ** Problem in interior solar distribution calculation (CHKBKS)
   **   ~~~   **    Solar Distribution = FullInteriorExterior will not work in Zone=VIVIENDA10_0
   **   ~~~   **    because vertex 4 of back surface=BLOCK VIVIENDA10_0 STOREY 0 WALL 0015 is in front of receiving surface=BLOCK VIVIENDA10_0 STOREY 0 WALL 0012
   **   ~~~   **    (Dot Product indicator=0.0141)
   **   ~~~   **    Check surface geometry; if OK, use Solar Distribution = FullExterior instead.
   ** Severe  ** Problem in interior solar distribution calculation (CHKBKS)
   **   ~~~   **    Solar Distribution = FullInteriorExterior will not work in Zone=VIVIENDA10_0
   **   ~~~   **    because vertex 1 of back surface=BLOCK VIVIENDA10_0 STOREY 0 WALL 0016 is in front of receiving surface=BLOCK VIVIENDA10_0 STOREY 0 WALL 0012
   **   ~~~   **    (Dot Product indicator=0.2058)
   **   ~~~   **    Check surface geometry; if OK, use Solar Distribution = FullExterior instead.
   ** Severe  ** Problem in interior solar distribution calculation (CHKBKS)
   **   ~~~   **    Solar Distribution = FullInteriorExterior will not work in Zone=VIVIENDA10_0
   **   ~~~   **    because vertex 2 of back surface=BLOCK VIVIENDA10_0 STOREY 0 WALL 0016 is in front of receiving surface=BLOCK VIVIENDA10_0 STOREY 0 WALL 0012
   **   ~~~   **    (Dot Product indicator=0.0141)
   **   ~~~   **    Check surface geometry; if OK, use Solar Distribution = FullExterior instead.
   ** Severe  ** Problem in interior solar distribution calculation (CHKBKS)
   **   ~~~   **    Solar Distribution = FullInteriorExterior will not work in Zone=VIVIENDA10_0
   **   ~~~   **    because vertex 3 of back surface=BLOCK VIVIENDA10_0 STOREY 0 WALL 0016 is in front of receiving surface=BLOCK VIVIENDA10_0 STOREY 0 WALL 0012
   **   ~~~   **    (Dot Product indicator=0.0141)
   **   ~~~   **    Check surface geometry; if OK, use Solar Distribution = FullExterior instead.
   ** Severe  ** Problem in interior solar distribution calculation (CHKBKS)
   **   ~~~   **    Solar Distribution = FullInteriorExterior will not work in Zone=VIVIENDA10_0
   **   ~~~   **    because vertex 4 of back surface=BLOCK VIVIENDA10_0 STOREY 0 WALL 0016 is in front of receiving surface=BLOCK VIVIENDA10_0 STOREY 0 WALL 0012
   **   ~~~   **    (Dot Product indicator=0.2058)
   **   ~~~   **    Check surface geometry; if OK, use Solar Distribution = FullExterior instead.
   ** Severe  ** Problem in interior solar distribution calculation (CHKBKS)
   **   ~~~   **    Solar Distribution = FullInteriorExterior will not work in Zone=VIVIENDA10_0
   **   ~~~   **    because vertex 2 of back surface=BLOCK VIVIENDA10_0 STOREY 0 WALL 0017 is in front of receiving surface=BLOCK VIVIENDA10_0 STOREY 0 WALL 0012
   **   ~~~   **    (Dot Product indicator=0.2058)
   **   ~~~   **    Check surface geometry; if OK, use Solar Distribution = FullExterior instead.
   ** Severe  ** Problem in interior solar distribution calculation (CHKBKS)
   **   ~~~   **    Solar Distribution = FullInteriorExterior will not work in Zone=VIVIENDA10_0
   **   ~~~   **    because vertex 3 of back surface=BLOCK VIVIENDA10_0 STOREY 0 WALL 0017 is in front of receiving surface=BLOCK VIVIENDA10_0 STOREY 0 WALL 0012
   **   ~~~   **    (Dot Product indicator=0.2058)
   **   ~~~   **    Check surface geometry; if OK, use Solar Distribution = FullExterior instead.
   ** Severe  ** Problem in interior solar distribution calculation (CHKBKS)
   **   ~~~   **    Solar Distribution = FullInteriorExterior will not work in Zone=VIVIENDA10_0
   **   ~~~   **    because vertex 17 of back surface=BLOCK VIVIENDA10_0 STOREY 0 FLOOR 0001 is in front of receiving surface=BLOCK VIVIENDA10_0 STOREY 0 WALL 0012
   **   ~~~   **    (Dot Product indicator=0.2058)
   **   ~~~   **    Check surface geometry; if OK, use Solar Distribution = FullExterior instead.
   ** Severe  ** Problem in interior solar distribution calculation (CHKBKS)
   **   ~~~   **    Solar Distribution = FullInteriorExterior will not work in Zone=VIVIENDA10_0
   **   ~~~   **    because vertex 18 of back surface=BLOCK VIVIENDA10_0 STOREY 0 FLOOR 0001 is in front of receiving surface=BLOCK VIVIENDA10_0 STOREY 0 WALL 0012
   **   ~~~   **    (Dot Product indicator=0.0141)
   **   ~~~   **    Check surface geometry; if OK, use Solar Distribution = FullExterior instead.
   ** Severe  ** Problem in interior solar distribution calculation (CHKBKS)
   **   ~~~   **    Solar Distribution = FullInteriorExterior will not work in Zone=VIVIENDA10_0
   **   ~~~   **    because vertex 9 of back surface=BLOCK VIVIENDA10_0 STOREY 0 ROOF 0001 is in front of receiving surface=BLOCK VIVIENDA10_0 STOREY 0 WALL 0012
   **   ~~~   **    (Dot Product indicator=0.0141)
   **   ~~~   **    Check surface geometry; if OK, use Solar Distribution = FullExterior instead.
   ** Severe  ** Problem in interior solar distribution calculation (CHKBKS)
   **   ~~~   **    Solar Distribution = FullInteriorExterior will not work in Zone=VIVIENDA10_0
   **   ~~~   **    because vertex 10 of back surface=BLOCK VIVIENDA10_0 STOREY 0 ROOF 0001 is in front of receiving surface=BLOCK VIVIENDA10_0 STOREY 0 WALL 0012
   **   ~~~   **    (Dot Product indicator=0.2058)
   **   ~~~   **    Check surface geometry; if OK, use Solar Distribution = FullExterior instead.
   ** Severe  ** Problem in interior solar distribution calculation (CHKBKS)
   **   ~~~   **    Solar Distribution = FullInteriorExterior will not work in Zone=VIVIENDA10_0
   **   ~~~   **    because vertex 1 of back surface=BLOCK VIVIENDA10_0 STOREY 0 WALL 0001 is in front of receiving surface=BLOCK VIVIENDA10_0 STOREY 0 WALL 0019
   **   ~~~   **    (Dot Product indicator=13.4178)
   **   ~~~   **    Check surface geometry; if OK, use Solar Distribution = FullExterior instead.
   ** Severe  ** Problem in interior solar distribution calculation (CHKBKS)
   **   ~~~   **    Solar Distribution = FullInteriorExterior will not work in Zone=VIVIENDA10_0
   **   ~~~   **    because vertex 2 of back surface=BLOCK VIVIENDA10_0 STOREY 0 WALL 0001 is in front of receiving surface=BLOCK VIVIENDA10_0 STOREY 0 WALL 0019
   **   ~~~   **    (Dot Product indicator=12.6654)
   **   ~~~   **    Check surface geometry; if OK, use Solar Distribution = FullExterior instead.
   ** Severe  ** Problem in interior solar distribution calculation (CHKBKS)
   **   ~~~   **    Solar Distribution = FullInteriorExterior will not work in Zone=VIVIENDA10_0
   **   ~~~   **    because vertex 3 of back surface=BLOCK VIVIENDA10_0 STOREY 0 WALL 0001 is in front of receiving surface=BLOCK VIVIENDA10_0 STOREY 0 WALL 0019
   **   ~~~   **    (Dot Product indicator=12.6654)
   **   ~~~   **    Check surface geometry; if OK, use Solar Distribution = FullExterior instead.
   ** Severe  ** Problem in interior solar distribution calculation (CHKBKS)
   **   ~~~   **    Solar Distribution = FullInteriorExterior will not work in Zone=VIVIENDA10_0
   **   ~~~   **    because vertex 4 of back surface=BLOCK VIVIENDA10_0 STOREY 0 WALL 0001 is in front of receiving surface=BLOCK VIVIENDA10_0 STOREY 0 WALL 0019
   **   ~~~   **    (Dot Product indicator=13.4178)
   **   ~~~   **    Check surface geometry; if OK, use Solar Distribution = FullExterior instead.
   ** Severe  ** Problem in interior solar distribution calculation (CHKBKS)
   **   ~~~   **    Solar Distribution = FullInteriorExterior will not work in Zone=VIVIENDA10_0
   **   ~~~   **    because vertex 1 of back surface=BLOCK VIVIENDA10_0 STOREY 0 WALL 0002 is in front of receiving surface=BLOCK VIVIENDA10_0 STOREY 0 WALL 0019
   **   ~~~   **    (Dot Product indicator=23.7005)
   **   ~~~   **    Check surface geometry; if OK, use Solar Distribution = FullExterior instead.
   ** Severe  ** Problem in interior solar distribution calculation (CHKBKS)
   **   ~~~   **    Solar Distribution = FullInteriorExterior will not work in Zone=VIVIENDA10_0
   **   ~~~   **    because vertex 2 of back surface=BLOCK VIVIENDA10_0 STOREY 0 WALL 0002 is in front of receiving surface=BLOCK VIVIENDA10_0 STOREY 0 WALL 0019
   **   ~~~   **    (Dot Product indicator=13.4178)
   **   ~~~   **    Check surface geometry; if OK, use Solar Distribution = FullExterior instead.
   ** Severe  ** Problem in interior solar distribution calculation (CHKBKS)
   **   ~~~   **    Solar Distribution = FullInteriorExterior will not work in Zone=VIVIENDA10_0
   **   ~~~   **    because vertex 3 of back surface=BLOCK VIVIENDA10_0 STOREY 0 WALL 0002 is in front of receiving surface=BLOCK VIVIENDA10_0 STOREY 0 WALL 0019
   **   ~~~   **    (Dot Product indicator=13.4178)
   **   ~~~   **    Check surface geometry; if OK, use Solar Distribution = FullExterior instead.
   ** Severe  ** Problem in interior solar distribution calculation (CHKBKS)
   **   ~~~   **    Solar Distribution = FullInteriorExterior will not work in Zone=VIVIENDA10_0
   **   ~~~   **    because vertex 4 of back surface=BLOCK VIVIENDA10_0 STOREY 0 WALL 0002 is in front of receiving surface=BLOCK VIVIENDA10_0 STOREY 0 WALL 0019
   **   ~~~   **    (Dot Product indicator=23.7005)
   **   ~~~   **    Check surface geometry; if OK, use Solar Distribution = FullExterior instead.
   ** Severe  ** Problem in interior solar distribution calculation (CHKBKS)
   **   ~~~   **    Solar Distribution = FullInteriorExterior will not work in Zone=VIVIENDA10_0
   **   ~~~   **    because vertex 1 of back surface=BLOCK VIVIENDA10_0 STOREY 0 WALL 0003 is in front of receiving surface=BLOCK VIVIENDA10_0 STOREY 0 WALL 0019
   **   ~~~   **    (Dot Product indicator=59.1887)
   **   ~~~   **    Check surface geometry; if OK, use Solar Distribution = FullExterior instead.
   ** Severe  ** Problem in interior solar distribution calculation (CHKBKS)
   **   ~~~   **    Solar Distribution = FullInteriorExterior will not work in Zone=VIVIENDA10_0
   **   ~~~   **    because vertex 2 of back surface=BLOCK VIVIENDA10_0 STOREY 0 WALL 0003 is in front of receiving surface=BLOCK VIVIENDA10_0 STOREY 0 WALL 0019
   **   ~~~   **    (Dot Product indicator=23.7005)
   **   ~~~   **    Check surface geometry; if OK, use Solar Distribution = FullExterior instead.
   ** Severe  ** Problem in interior solar distribution calculation (CHKBKS)
   **   ~~~   **    Solar Distribution = FullInteriorExterior will not work in Zone=VIVIENDA10_0
   **   ~~~   **    because vertex 3 of back surface=BLOCK VIVIENDA10_0 STOREY 0 WALL 0003 is in front of receiving surface=BLOCK VIVIENDA10_0 STOREY 0 WALL 0019
   **   ~~~   **    (Dot Product indicator=23.7005)
   **   ~~~   **    Check surface geometry; if OK, use Solar Distribution = FullExterior instead.
   ** Severe  ** Problem in interior solar distribution calculation (CHKBKS)
   **   ~~~   **    Solar Distribution = FullInteriorExterior will not work in Zone=VIVIENDA10_0
   **   ~~~   **    because vertex 4 of back surface=BLOCK VIVIENDA10_0 STOREY 0 WALL 0003 is in front of receiving surface=BLOCK VIVIENDA10_0 STOREY 0 WALL 0019
   **   ~~~   **    (Dot Product indicator=59.1887)
   **   ~~~   **    Check surface geometry; if OK, use Solar Distribution = FullExterior instead.
   ** Severe  ** Problem in interior solar distribution calculation (CHKBKS)
   **   ~~~   **    Solar Distribution = FullInteriorExterior will not work in Zone=VIVIENDA10_0
   **   ~~~   **    because vertex 1 of back surface=BLOCK VIVIENDA10_0 STOREY 0 WALL 0004 is in front of receiving surface=BLOCK VIVIENDA10_0 STOREY 0 WALL 0019
   **   ~~~   **    (Dot Product indicator=77.1209)
   **   ~~~   **    Check surface geometry; if OK, use Solar Distribution = FullExterior instead.
   ** Severe  ** Problem in interior solar distribution calculation (CHKBKS)
   **   ~~~   **    Solar Distribution = FullInteriorExterior will not work in Zone=VIVIENDA10_0
   **   ~~~   **    because vertex 2 of back surface=BLOCK VIVIENDA10_0 STOREY 0 WALL 0004 is in front of receiving surface=BLOCK VIVIENDA10_0 STOREY 0 WALL 0019
   **   ~~~   **    (Dot Product indicator=59.1887)
   **   ~~~   **    Check surface geometry; if OK, use Solar Distribution = FullExterior instead.
   ** Severe  ** Problem in interior solar distribution calculation (CHKBKS)
   **   ~~~   **    Solar Distribution = FullInteriorExterior will not work in Zone=VIVIENDA10_0
   **   ~~~   **    because vertex 3 of back surface=BLOCK VIVIENDA10_0 STOREY 0 WALL 0004 is in front of receiving surface=BLOCK VIVIENDA10_0 STOREY 0 WALL 0019
   **   ~~~   **    (Dot Product indicator=59.1887)
   **   ~~~   **    Check surface geometry; if OK, use Solar Distribution = FullExterior instead.
   ** Severe  ** Problem in interior solar distribution calculation (CHKBKS)
   **   ~~~   **    Solar Distribution = FullInteriorExterior will not work in Zone=VIVIENDA10_0
   **   ~~~   **    because vertex 4 of back surface=BLOCK VIVIENDA10_0 STOREY 0 WALL 0004 is in front of receiving surface=BLOCK VIVIENDA10_0 STOREY 0 WALL 0019
   **   ~~~   **    (Dot Product indicator=77.1209)
   **   ~~~   **    Check surface geometry; if OK, use Solar Distribution = FullExterior instead.
   ** Severe  ** Problem in interior solar distribution calculation (CHKBKS)
   **   ~~~   **    Solar Distribution = FullInteriorExterior will not work in Zone=VIVIENDA10_0
   **   ~~~   **    because vertex 1 of back surface=BLOCK VIVIENDA10_0 STOREY 0 WALL 0005 is in front of receiving surface=BLOCK VIVIENDA10_0 STOREY 0 WALL 0019
   **   ~~~   **    (Dot Product indicator=92.0434)
   **   ~~~   **    Check surface geometry; if OK, use Solar Distribution = FullExterior instead.
   ** Severe  ** Problem in interior solar distribution calculation (CHKBKS)
   **   ~~~   **    Solar Distribution = FullInteriorExterior will not work in Zone=VIVIENDA10_0
   **   ~~~   **    because vertex 2 of back surface=BLOCK VIVIENDA10_0 STOREY 0 WALL 0005 is in front of receiving surface=BLOCK VIVIENDA10_0 STOREY 0 WALL 0019
   **   ~~~   **    (Dot Product indicator=77.1209)
   **   ~~~   **    Check surface geometry; if OK, use Solar Distribution = FullExterior instead.
   ** Severe  ** Problem in interior solar distribution calculation (CHKBKS)
   **   ~~~   **    Solar Distribution = FullInteriorExterior will not work in Zone=VIVIENDA10_0
   **   ~~~   **    because vertex 3 of back surface=BLOCK VIVIENDA10_0 STOREY 0 WALL 0005 is in front of receiving surface=BLOCK VIVIENDA10_0 STOREY 0 WALL 0019
   **   ~~~   **    (Dot Product indicator=77.1209)
   **   ~~~   **    Check surface geometry; if OK, use Solar Distribution = FullExterior instead.
   ** Severe  ** Problem in interior solar distribution calculation (CHKBKS)
   **   ~~~   **    Solar Distribution = FullInteriorExterior will not work in Zone=VIVIENDA10_0
   **   ~~~   **    because vertex 4 of back surface=BLOCK VIVIENDA10_0 STOREY 0 WALL 0005 is in front of receiving surface=BLOCK VIVIENDA10_0 STOREY 0 WALL 0019
   **   ~~~   **    (Dot Product indicator=92.0434)
   **   ~~~   **    Check surface geometry; if OK, use Solar Distribution = FullExterior instead.
   ** Severe  ** Problem in interior solar distribution calculation (CHKBKS)
   **   ~~~   **    Solar Distribution = FullInteriorExterior will not work in Zone=VIVIENDA10_0
   **   ~~~   **    because vertex 1 of back surface=BLOCK VIVIENDA10_0 STOREY 0 WALL 0006 is in front of receiving surface=BLOCK VIVIENDA10_0 STOREY 0 WALL 0019
   **   ~~~   **    (Dot Product indicator=115.7440)
   **   ~~~   **    Check surface geometry; if OK, use Solar Distribution = FullExterior instead.
   ** Severe  ** Problem in interior solar distribution calculation (CHKBKS)
   **   ~~~   **    Solar Distribution = FullInteriorExterior will not work in Zone=VIVIENDA10_0
   **   ~~~   **    because vertex 2 of back surface=BLOCK VIVIENDA10_0 STOREY 0 WALL 0006 is in front of receiving surface=BLOCK VIVIENDA10_0 STOREY 0 WALL 0019
   **   ~~~   **    (Dot Product indicator=92.0434)
   **   ~~~   **    Check surface geometry; if OK, use Solar Distribution = FullExterior instead.
   ** Severe  ** Problem in interior solar distribution calculation (CHKBKS)
   **   ~~~   **    Solar Distribution = FullInteriorExterior will not work in Zone=VIVIENDA10_0
   **   ~~~   **    because vertex 3 of back surface=BLOCK VIVIENDA10_0 STOREY 0 WALL 0006 is in front of receiving surface=BLOCK VIVIENDA10_0 STOREY 0 WALL 0019
   **   ~~~   **    (Dot Product indicator=92.0434)
   **   ~~~   **    Check surface geometry; if OK, use Solar Distribution = FullExterior instead.
   ** Severe  ** Problem in interior solar distribution calculation (CHKBKS)
   **   ~~~   **    Solar Distribution = FullInteriorExterior will not work in Zone=VIVIENDA10_0
   **   ~~~   **    because vertex 4 of back surface=BLOCK VIVIENDA10_0 STOREY 0 WALL 0006 is in front of receiving surface=BLOCK VIVIENDA10_0 STOREY 0 WALL 0019
   **   ~~~   **    (Dot Product indicator=115.7440)
   **   ~~~   **    Check surface geometry; if OK, use Solar Distribution = FullExterior instead.
   ** Severe  ** Problem in interior solar distribution calculation (CHKBKS)
   **   ~~~   **    Solar Distribution = FullInteriorExterior will not work in Zone=VIVIENDA10_0
   **   ~~~   **    because vertex 1 of back surface=BLOCK VIVIENDA10_0 STOREY 0 WALL 0007 is in front of receiving surface=BLOCK VIVIENDA10_0 STOREY 0 WALL 0019
   **   ~~~   **    (Dot Product indicator=107.2168)
   **   ~~~   **    Check surface geometry; if OK, use Solar Distribution = FullExterior instead.
   ** Severe  ** Problem in interior solar distribution calculation (CHKBKS)
   **   ~~~   **    Solar Distribution = FullInteriorExterior will not work in Zone=VIVIENDA10_0
   **   ~~~   **    because vertex 2 of back surface=BLOCK VIVIENDA10_0 STOREY 0 WALL 0007 is in front of receiving surface=BLOCK VIVIENDA10_0 STOREY 0 WALL 0019
   **   ~~~   **    (Dot Product indicator=115.7440)
   **   ~~~   **    Check surface geometry; if OK, use Solar Distribution = FullExterior instead.
   ** Severe  ** Problem in interior solar distribution calculation (CHKBKS)
   **   ~~~   **    Solar Distribution = FullInteriorExterior will not work in Zone=VIVIENDA10_0
   **   ~~~   **    because vertex 3 of back surface=BLOCK VIVIENDA10_0 STOREY 0 WALL 0007 is in front of receiving surface=BLOCK VIVIENDA10_0 STOREY 0 WALL 0019
   **   ~~~   **    (Dot Product indicator=115.7440)
   **   ~~~   **    Check surface geometry; if OK, use Solar Distribution = FullExterior instead.
   ** Severe  ** Problem in interior solar distribution calculation (CHKBKS)
   **   ~~~   **    Solar Distribution = FullInteriorExterior will not work in Zone=VIVIENDA10_0
   **   ~~~   **    because vertex 4 of back surface=BLOCK VIVIENDA10_0 STOREY 0 WALL 0007 is in front of receiving surface=BLOCK VIVIENDA10_0 STOREY 0 WALL 0019
   **   ~~~   **    (Dot Product indicator=107.2168)
   **   ~~~   **    Check surface geometry; if OK, use Solar Distribution = FullExterior instead.
   ** Severe  ** Problem in interior solar distribution calculation (CHKBKS)
   **   ~~~   **    Solar Distribution = FullInteriorExterior will not work in Zone=VIVIENDA10_0
   **   ~~~   **    because vertex 1 of back surface=BLOCK VIVIENDA10_0 STOREY 0 WALL 0008 is in front of receiving surface=BLOCK VIVIENDA10_0 STOREY 0 WALL 0019
   **   ~~~   **    (Dot Product indicator=59.4394)
   **   ~~~   **    Check surface geometry; if OK, use Solar Distribution = FullExterior instead.
   ** Severe  ** Problem in interior solar distribution calculation (CHKBKS)
   **   ~~~   **    Solar Distribution = FullInteriorExterior will not work in Zone=VIVIENDA10_0
   **   ~~~   **    because vertex 2 of back surface=BLOCK VIVIENDA10_0 STOREY 0 WALL 0008 is in front of receiving surface=BLOCK VIVIENDA10_0 STOREY 0 WALL 0019
   **   ~~~   **    (Dot Product indicator=107.2168)
   **   ~~~   **    Check surface geometry; if OK, use Solar Distribution = FullExterior instead.
   ** Severe  ** Problem in interior solar distribution calculation (CHKBKS)
   **   ~~~   **    Solar Distribution = FullInteriorExterior will not work in Zone=VIVIENDA10_0
   **   ~~~   **    because vertex 3 of back surface=BLOCK VIVIENDA10_0 STOREY 0 WALL 0008 is in front of receiving surface=BLOCK VIVIENDA10_0 STOREY 0 WALL 0019
   **   ~~~   **    (Dot Product indicator=107.2168)
   **   ~~~   **    Check surface geometry; if OK, use Solar Distribution = FullExterior instead.
   ** Severe  ** Problem in interior solar distribution calculation (CHKBKS)
   **   ~~~   **    Solar Distribution = FullInteriorExterior will not work in Zone=VIVIENDA10_0
   **   ~~~   **    because vertex 4 of back surface=BLOCK VIVIENDA10_0 STOREY 0 WALL 0008 is in front of receiving surface=BLOCK VIVIENDA10_0 STOREY 0 WALL 0019
   **   ~~~   **    (Dot Product indicator=59.4394)
   **   ~~~   **    Check surface geometry; if OK, use Solar Distribution = FullExterior instead.
   ** Severe  ** Problem in interior solar distribution calculation (CHKBKS)
   **   ~~~   **    Solar Distribution = FullInteriorExterior will not work in Zone=VIVIENDA10_0
   **   ~~~   **    because vertex 1 of back surface=BLOCK VIVIENDA10_0 STOREY 0 WALL 0009 is in front of receiving surface=BLOCK VIVIENDA10_0 STOREY 0 WALL 0019
   **   ~~~   **    (Dot Product indicator=51.6646)
   **   ~~~   **    Check surface geometry; if OK, use Solar Distribution = FullExterior instead.
   ** Severe  ** Problem in interior solar distribution calculation (CHKBKS)
   **   ~~~   **    Solar Distribution = FullInteriorExterior will not work in Zone=VIVIENDA10_0
   **   ~~~   **    because vertex 2 of back surface=BLOCK VIVIENDA10_0 STOREY 0 WALL 0009 is in front of receiving surface=BLOCK VIVIENDA10_0 STOREY 0 WALL 0019
   **   ~~~   **    (Dot Product indicator=59.4394)
   **   ~~~   **    Check surface geometry; if OK, use Solar Distribution = FullExterior instead.
   ** Severe  ** Problem in interior solar distribution calculation (CHKBKS)
   **   ~~~   **    Solar Distribution = FullInteriorExterior will not work in Zone=VIVIENDA10_0
   **   ~~~   **    because vertex 3 of back surface=BLOCK VIVIENDA10_0 STOREY 0 WALL 0009 is in front of receiving surface=BLOCK VIVIENDA10_0 STOREY 0 WALL 0019
   **   ~~~   **    (Dot Product indicator=59.4394)
   **   ~~~   **    Check surface geometry; if OK, use Solar Distribution = FullExterior instead.
   ** Severe  ** Problem in interior solar distribution calculation (CHKBKS)
   **   ~~~   **    Solar Distribution = FullInteriorExterior will not work in Zone=VIVIENDA10_0
   **   ~~~   **    because vertex 4 of back surface=BLOCK VIVIENDA10_0 STOREY 0 WALL 0009 is in front of receiving surface=BLOCK VIVIENDA10_0 STOREY 0 WALL 0019
   **   ~~~   **    (Dot Product indicator=51.6646)
   **   ~~~   **    Check surface geometry; if OK, use Solar Distribution = FullExterior instead.
   ** Severe  ** Problem in interior solar distribution calculation (CHKBKS)
   **   ~~~   **    Solar Distribution = FullInteriorExterior will not work in Zone=VIVIENDA10_0
   **   ~~~   **    because vertex 1 of back surface=BLOCK VIVIENDA10_0 STOREY 0 WALL 0009 WINDOW is in front of receiving surface=BLOCK VIVIENDA10_0 STOREY 0 WALL 0019
   **   ~~~   **    (Dot Product indicator=59.4355)
   **   ~~~   **    Check surface geometry; if OK, use Solar Distribution = FullExterior instead.
   ** Severe  ** Problem in interior solar distribution calculation (CHKBKS)
   **   ~~~   **    Solar Distribution = FullInteriorExterior will not work in Zone=VIVIENDA10_0
   **   ~~~   **    because vertex 2 of back surface=BLOCK VIVIENDA10_0 STOREY 0 WALL 0009 WINDOW is in front of receiving surface=BLOCK VIVIENDA10_0 STOREY 0 WALL 0019
   **   ~~~   **    (Dot Product indicator=59.4355)
   **   ~~~   **    Check surface geometry; if OK, use Solar Distribution = FullExterior instead.
   ** Severe  ** Problem in interior solar distribution calculation (CHKBKS)
   **   ~~~   **    Solar Distribution = FullInteriorExterior will not work in Zone=VIVIENDA10_0
   **   ~~~   **    because vertex 3 of back surface=BLOCK VIVIENDA10_0 STOREY 0 WALL 0009 WINDOW is in front of receiving surface=BLOCK VIVIENDA10_0 STOREY 0 WALL 0019
   **   ~~~   **    (Dot Product indicator=51.6685)
   **   ~~~   **    Check surface geometry; if OK, use Solar Distribution = FullExterior instead.
   ** Severe  ** Problem in interior solar distribution calculation (CHKBKS)
   **   ~~~   **    Solar Distribution = FullInteriorExterior will not work in Zone=VIVIENDA10_0
   **   ~~~   **    because vertex 4 of back surface=BLOCK VIVIENDA10_0 STOREY 0 WALL 0009 WINDOW is in front of receiving surface=BLOCK VIVIENDA10_0 STOREY 0 WALL 0019
   **   ~~~   **    (Dot Product indicator=51.6685)
   **   ~~~   **    Check surface geometry; if OK, use Solar Distribution = FullExterior instead.
   ** Severe  ** Problem in interior solar distribution calculation (CHKBKS)
   **   ~~~   **    Solar Distribution = FullInteriorExterior will not work in Zone=VIVIENDA10_0
   **   ~~~   **    because vertex 1 of back surface=BLOCK VIVIENDA10_0 STOREY 0 WALL 0010 is in front of receiving surface=BLOCK VIVIENDA10_0 STOREY 0 WALL 0019
   **   ~~~   **    (Dot Product indicator=15.9257)
   **   ~~~   **    Check surface geometry; if OK, use Solar Distribution = FullExterior instead.
   ** Severe  ** Problem in interior solar distribution calculation (CHKBKS)
   **   ~~~   **    Solar Distribution = FullInteriorExterior will not work in Zone=VIVIENDA10_0
   **   ~~~   **    because vertex 2 of back surface=BLOCK VIVIENDA10_0 STOREY 0 WALL 0010 is in front of receiving surface=BLOCK VIVIENDA10_0 STOREY 0 WALL 0019
   **   ~~~   **    (Dot Product indicator=51.6646)
   **   ~~~   **    Check surface geometry; if OK, use Solar Distribution = FullExterior instead.
   ** Severe  ** Problem in interior solar distribution calculation (CHKBKS)
   **   ~~~   **    Solar Distribution = FullInteriorExterior will not work in Zone=VIVIENDA10_0
   **   ~~~   **    because vertex 3 of back surface=BLOCK VIVIENDA10_0 STOREY 0 WALL 0010 is in front of receiving surface=BLOCK VIVIENDA10_0 STOREY 0 WALL 0019
   **   ~~~   **    (Dot Product indicator=51.6646)
   **   ~~~   **    Check surface geometry; if OK, use Solar Distribution = FullExterior instead.
   ** Severe  ** Problem in interior solar distribution calculation (CHKBKS)
   **   ~~~   **    Solar Distribution = FullInteriorExterior will not work in Zone=VIVIENDA10_0
   **   ~~~   **    because vertex 4 of back surface=BLOCK VIVIENDA10_0 STOREY 0 WALL 0010 is in front of receiving surface=BLOCK VIVIENDA10_0 STOREY 0 WALL 0019
   **   ~~~   **    (Dot Product indicator=15.9257)
   **   ~~~   **    Check surface geometry; if OK, use Solar Distribution = FullExterior instead.
   ** Severe  ** Problem in interior solar distribution calculation (CHKBKS)
   **   ~~~   **    Solar Distribution = FullInteriorExterior will not work in Zone=VIVIENDA10_0
   **   ~~~   **    because vertex 1 of back surface=BLOCK VIVIENDA10_0 STOREY 0 WALL 0010 WINDOW is in front of receiving surface=BLOCK VIVIENDA10_0 STOREY 0 WALL 0019
   **   ~~~   **    (Dot Product indicator=51.6468)
   **   ~~~   **    Check surface geometry; if OK, use Solar Distribution = FullExterior instead.
   ** Severe  ** Problem in interior solar distribution calculation (CHKBKS)
   **   ~~~   **    Solar Distribution = FullInteriorExterior will not work in Zone=VIVIENDA10_0
   **   ~~~   **    because vertex 2 of back surface=BLOCK VIVIENDA10_0 STOREY 0 WALL 0010 WINDOW is in front of receiving surface=BLOCK VIVIENDA10_0 STOREY 0 WALL 0019
   **   ~~~   **    (Dot Product indicator=51.6468)
   **   ~~~   **    Check surface geometry; if OK, use Solar Distribution = FullExterior instead.
   ** Severe  ** Problem in interior solar distribution calculation (CHKBKS)
   **   ~~~   **    Solar Distribution = FullInteriorExterior will not work in Zone=VIVIENDA10_0
   **   ~~~   **    because vertex 3 of back surface=BLOCK VIVIENDA10_0 STOREY 0 WALL 0010 WINDOW is in front of receiving surface=BLOCK VIVIENDA10_0 STOREY 0 WALL 0019
   **   ~~~   **    (Dot Product indicator=15.9436)
   **   ~~~   **    Check surface geometry; if OK, use Solar Distribution = FullExterior instead.
   ** Severe  ** Problem in interior solar distribution calculation (CHKBKS)
   **   ~~~   **    Solar Distribution = FullInteriorExterior will not work in Zone=VIVIENDA10_0
   **   ~~~   **    because vertex 4 of back surface=BLOCK VIVIENDA10_0 STOREY 0 WALL 0010 WINDOW is in front of receiving surface=BLOCK VIVIENDA10_0 STOREY 0 WALL 0019
   **   ~~~   **    (Dot Product indicator=15.9436)
   **   ~~~   **    Check surface geometry; if OK, use Solar Distribution = FullExterior instead.
   ** Severe  ** Problem in interior solar distribution calculation (CHKBKS)
   **   ~~~   **    Solar Distribution = FullInteriorExterior will not work in Zone=VIVIENDA10_0
   **   ~~~   **    because vertex 2 of back surface=BLOCK VIVIENDA10_0 STOREY 0 WALL 0011 is in front of receiving surface=BLOCK VIVIENDA10_0 STOREY 0 WALL 0019
   **   ~~~   **    (Dot Product indicator=15.9257)
   **   ~~~   **    Check surface geometry; if OK, use Solar Distribution = FullExterior instead.
   ** Severe  ** Problem in interior solar distribution calculation (CHKBKS)
   **   ~~~   **    Solar Distribution = FullInteriorExterior will not work in Zone=VIVIENDA10_0
   **   ~~~   **    because vertex 3 of back surface=BLOCK VIVIENDA10_0 STOREY 0 WALL 0011 is in front of receiving surface=BLOCK VIVIENDA10_0 STOREY 0 WALL 0019
   **   ~~~   **    (Dot Product indicator=15.9257)
   **   ~~~   **    Check surface geometry; if OK, use Solar Distribution = FullExterior instead.
   ** Severe  ** Problem in interior solar distribution calculation (CHKBKS)
   **   ~~~   **    Solar Distribution = FullInteriorExterior will not work in Zone=VIVIENDA10_0
   **   ~~~   **    because vertex 1 of back surface=BLOCK VIVIENDA10_0 STOREY 0 WALL 0011 WINDOW is in front of receiving surface=BLOCK VIVIENDA10_0 STOREY 0 WALL 0019
   **   ~~~   **    (Dot Product indicator=15.9062)
   **   ~~~   **    Check surface geometry; if OK, use Solar Distribution = FullExterior instead.
   ** Severe  ** Problem in interior solar distribution calculation (CHKBKS)
   **   ~~~   **    Solar Distribution = FullInteriorExterior will not work in Zone=VIVIENDA10_0
   **   ~~~   **    because vertex 2 of back surface=BLOCK VIVIENDA10_0 STOREY 0 WALL 0011 WINDOW is in front of receiving surface=BLOCK VIVIENDA10_0 STOREY 0 WALL 0019
   **   ~~~   **    (Dot Product indicator=15.9062)
   **   ~~~   **    Check surface geometry; if OK, use Solar Distribution = FullExterior instead.
   ** Severe  ** Problem in interior solar distribution calculation (CHKBKS)
   **   ~~~   **    Solar Distribution = FullInteriorExterior will not work in Zone=VIVIENDA10_0
   **   ~~~   **    because vertex 1 of back surface=BLOCK VIVIENDA10_0 STOREY 0 WALL 0020 is in front of receiving surface=BLOCK VIVIENDA10_0 STOREY 0 WALL 0019
   **   ~~~   **    (Dot Product indicator=12.6654)
   **   ~~~   **    Check surface geometry; if OK, use Solar Distribution = FullExterior instead.
   ** Severe  ** Problem in interior solar distribution calculation (CHKBKS)
   **   ~~~   **    Solar Distribution = FullInteriorExterior will not work in Zone=VIVIENDA10_0
   **   ~~~   **    because vertex 4 of back surface=BLOCK VIVIENDA10_0 STOREY 0 WALL 0020 is in front of receiving surface=BLOCK VIVIENDA10_0 STOREY 0 WALL 0019
   **   ~~~   **    (Dot Product indicator=12.6654)
   **   ~~~   **    Check surface geometry; if OK, use Solar Distribution = FullExterior instead.
   ** Severe  ** Problem in interior solar distribution calculation (CHKBKS)
   **   ~~~   **    Solar Distribution = FullInteriorExterior will not work in Zone=VIVIENDA10_0
   **   ~~~   **    because vertex 1 of back surface=BLOCK VIVIENDA10_0 STOREY 0 WALL 0020 WINDOW is in front of receiving surface=BLOCK VIVIENDA10_0 STOREY 0 WALL 0019
   **   ~~~   **    (Dot Product indicator=0.0063)
   **   ~~~   **    Check surface geometry; if OK, use Solar Distribution = FullExterior instead.
   ** Severe  ** Problem in interior solar distribution calculation (CHKBKS)
   **   ~~~   **    Solar Distribution = FullInteriorExterior will not work in Zone=VIVIENDA10_0
   **   ~~~   **    because vertex 2 of back surface=BLOCK VIVIENDA10_0 STOREY 0 WALL 0020 WINDOW is in front of receiving surface=BLOCK VIVIENDA10_0 STOREY 0 WALL 0019
   **   ~~~   **    (Dot Product indicator=0.0063)
   **   ~~~   **    Check surface geometry; if OK, use Solar Distribution = FullExterior instead.
   ** Severe  ** Problem in interior solar distribution calculation (CHKBKS)
   **   ~~~   **    Solar Distribution = FullInteriorExterior will not work in Zone=VIVIENDA10_0
   **   ~~~   **    because vertex 3 of back surface=BLOCK VIVIENDA10_0 STOREY 0 WALL 0020 WINDOW is in front of receiving surface=BLOCK VIVIENDA10_0 STOREY 0 WALL 0019
   **   ~~~   **    (Dot Product indicator=12.6590)
   **   ~~~   **    Check surface geometry; if OK, use Solar Distribution = FullExterior instead.
   ** Severe  ** Problem in interior solar distribution calculation (CHKBKS)
   **   ~~~   **    Solar Distribution = FullInteriorExterior will not work in Zone=VIVIENDA10_0
   **   ~~~   **    because vertex 4 of back surface=BLOCK VIVIENDA10_0 STOREY 0 WALL 0020 WINDOW is in front of receiving surface=BLOCK VIVIENDA10_0 STOREY 0 WALL 0019
   **   ~~~   **    (Dot Product indicator=12.6590)
   **   ~~~   **    Check surface geometry; if OK, use Solar Distribution = FullExterior instead.
   ** Severe  ** Problem in interior solar distribution calculation (CHKBKS)
   **   ~~~   **    Solar Distribution = FullInteriorExterior will not work in Zone=VIVIENDA10_0
   **   ~~~   **    because vertex 3 of back surface=BLOCK VIVIENDA10_0 STOREY 0 FLOOR 0001 is in front of receiving surface=BLOCK VIVIENDA10_0 STOREY 0 WALL 0019
   **   ~~~   **    (Dot Product indicator=15.9257)
   **   ~~~   **    Check surface geometry; if OK, use Solar Distribution = FullExterior instead.
   ** Severe  ** Problem in interior solar distribution calculation (CHKBKS)
   **   ~~~   **    Solar Distribution = FullInteriorExterior will not work in Zone=VIVIENDA10_0
   **   ~~~   **    because vertex 4 of back surface=BLOCK VIVIENDA10_0 STOREY 0 FLOOR 0001 is in front of receiving surface=BLOCK VIVIENDA10_0 STOREY 0 WALL 0019
   **   ~~~   **    (Dot Product indicator=51.6646)
   **   ~~~   **    Check surface geometry; if OK, use Solar Distribution = FullExterior instead.
   ** Severe  ** Problem in interior solar distribution calculation (CHKBKS)
   **   ~~~   **    Solar Distribution = FullInteriorExterior will not work in Zone=VIVIENDA10_0
   **   ~~~   **    because vertex 5 of back surface=BLOCK VIVIENDA10_0 STOREY 0 FLOOR 0001 is in front of receiving surface=BLOCK VIVIENDA10_0 STOREY 0 WALL 0019
   **   ~~~   **    (Dot Product indicator=59.4394)
   **   ~~~   **    Check surface geometry; if OK, use Solar Distribution = FullExterior instead.
   ** Severe  ** Problem in interior solar distribution calculation (CHKBKS)
   **   ~~~   **    Solar Distribution = FullInteriorExterior will not work in Zone=VIVIENDA10_0
   **   ~~~   **    because vertex 6 of back surface=BLOCK VIVIENDA10_0 STOREY 0 FLOOR 0001 is in front of receiving surface=BLOCK VIVIENDA10_0 STOREY 0 WALL 0019
   **   ~~~   **    (Dot Product indicator=107.2168)
   **   ~~~   **    Check surface geometry; if OK, use Solar Distribution = FullExterior instead.
   ** Severe  ** Problem in interior solar distribution calculation (CHKBKS)
   **   ~~~   **    Solar Distribution = FullInteriorExterior will not work in Zone=VIVIENDA10_0
   **   ~~~   **    because vertex 7 of back surface=BLOCK VIVIENDA10_0 STOREY 0 FLOOR 0001 is in front of receiving surface=BLOCK VIVIENDA10_0 STOREY 0 WALL 0019
   **   ~~~   **    (Dot Product indicator=115.7440)
   **   ~~~   **    Check surface geometry; if OK, use Solar Distribution = FullExterior instead.
   ** Severe  ** Problem in interior solar distribution calculation (CHKBKS)
   **   ~~~   **    Solar Distribution = FullInteriorExterior will not work in Zone=VIVIENDA10_0
   **   ~~~   **    because vertex 8 of back surface=BLOCK VIVIENDA10_0 STOREY 0 FLOOR 0001 is in front of receiving surface=BLOCK VIVIENDA10_0 STOREY 0 WALL 0019
   **   ~~~   **    (Dot Product indicator=92.0434)
   **   ~~~   **    Check surface geometry; if OK, use Solar Distribution = FullExterior instead.
   ** Severe  ** Problem in interior solar distribution calculation (CHKBKS)
   **   ~~~   **    Solar Distribution = FullInteriorExterior will not work in Zone=VIVIENDA10_0
   **   ~~~   **    because vertex 9 of back surface=BLOCK VIVIENDA10_0 STOREY 0 FLOOR 0001 is in front of receiving surface=BLOCK VIVIENDA10_0 STOREY 0 WALL 0019
   **   ~~~   **    (Dot Product indicator=77.1209)
   **   ~~~   **    Check surface geometry; if OK, use Solar Distribution = FullExterior instead.
   ** Severe  ** Problem in interior solar distribution calculation (CHKBKS)
   **   ~~~   **    Solar Distribution = FullInteriorExterior will not work in Zone=VIVIENDA10_0
   **   ~~~   **    because vertex 10 of back surface=BLOCK VIVIENDA10_0 STOREY 0 FLOOR 0001 is in front of receiving surface=BLOCK VIVIENDA10_0 STOREY 0 WALL 0019
   **   ~~~   **    (Dot Product indicator=59.1887)
   **   ~~~   **    Check surface geometry; if OK, use Solar Distribution = FullExterior instead.
   ** Severe  ** Problem in interior solar distribution calculation (CHKBKS)
   **   ~~~   **    Solar Distribution = FullInteriorExterior will not work in Zone=VIVIENDA10_0
   **   ~~~   **    because vertex 11 of back surface=BLOCK VIVIENDA10_0 STOREY 0 FLOOR 0001 is in front of receiving surface=BLOCK VIVIENDA10_0 STOREY 0 WALL 0019
   **   ~~~   **    (Dot Product indicator=23.7005)
   **   ~~~   **    Check surface geometry; if OK, use Solar Distribution = FullExterior instead.
   ** Severe  ** Problem in interior solar distribution calculation (CHKBKS)
   **   ~~~   **    Solar Distribution = FullInteriorExterior will not work in Zone=VIVIENDA10_0
   **   ~~~   **    because vertex 12 of back surface=BLOCK VIVIENDA10_0 STOREY 0 FLOOR 0001 is in front of receiving surface=BLOCK VIVIENDA10_0 STOREY 0 WALL 0019
   **   ~~~   **    (Dot Product indicator=13.4178)
   **   ~~~   **    Check surface geometry; if OK, use Solar Distribution = FullExterior instead.
   ** Severe  ** Problem in interior solar distribution calculation (CHKBKS)
   **   ~~~   **    Solar Distribution = FullInteriorExterior will not work in Zone=VIVIENDA10_0
   **   ~~~   **    because vertex 13 of back surface=BLOCK VIVIENDA10_0 STOREY 0 FLOOR 0001 is in front of receiving surface=BLOCK VIVIENDA10_0 STOREY 0 WALL 0019
   **   ~~~   **    (Dot Product indicator=12.6654)
   **   ~~~   **    Check surface geometry; if OK, use Solar Distribution = FullExterior instead.
   ** Severe  ** Problem in interior solar distribution calculation (CHKBKS)
   **   ~~~   **    Solar Distribution = FullInteriorExterior will not work in Zone=VIVIENDA10_0
   **   ~~~   **    because vertex 1 of back surface=BLOCK VIVIENDA10_0 STOREY 0 ROOF 0001 is in front of receiving surface=BLOCK VIVIENDA10_0 STOREY 0 WALL 0019
   **   ~~~   **    (Dot Product indicator=107.2168)
   **   ~~~   **    Check surface geometry; if OK, use Solar Distribution = FullExterior instead.
   ** Severe  ** Problem in interior solar distribution calculation (CHKBKS)
   **   ~~~   **    Solar Distribution = FullInteriorExterior will not work in Zone=VIVIENDA10_0
   **   ~~~   **    because vertex 2 of back surface=BLOCK VIVIENDA10_0 STOREY 0 ROOF 0001 is in front of receiving surface=BLOCK VIVIENDA10_0 STOREY 0 WALL 0019
   **   ~~~   **    (Dot Product indicator=59.4394)
   **   ~~~   **    Check surface geometry; if OK, use Solar Distribution = FullExterior instead.
   ** Severe  ** Problem in interior solar distribution calculation (CHKBKS)
   **   ~~~   **    Solar Distribution = FullInteriorExterior will not work in Zone=VIVIENDA10_0
   **   ~~~   **    because vertex 3 of back surface=BLOCK VIVIENDA10_0 STOREY 0 ROOF 0001 is in front of receiving surface=BLOCK VIVIENDA10_0 STOREY 0 WALL 0019
   **   ~~~   **    (Dot Product indicator=51.6646)
   **   ~~~   **    Check surface geometry; if OK, use Solar Distribution = FullExterior instead.
   ** Severe  ** Problem in interior solar distribution calculation (CHKBKS)
   **   ~~~   **    Solar Distribution = FullInteriorExterior will not work in Zone=VIVIENDA10_0
   **   ~~~   **    because vertex 4 of back surface=BLOCK VIVIENDA10_0 STOREY 0 ROOF 0001 is in front of receiving surface=BLOCK VIVIENDA10_0 STOREY 0 WALL 0019
   **   ~~~   **    (Dot Product indicator=15.9257)
   **   ~~~   **    Check surface geometry; if OK, use Solar Distribution = FullExterior instead.
   ** Severe  ** Problem in interior solar distribution calculation (CHKBKS)
   **   ~~~   **    Solar Distribution = FullInteriorExterior will not work in Zone=VIVIENDA10_0
   **   ~~~   **    because vertex 14 of back surface=BLOCK VIVIENDA10_0 STOREY 0 ROOF 0001 is in front of receiving surface=BLOCK VIVIENDA10_0 STOREY 0 WALL 0019
   **   ~~~   **    (Dot Product indicator=12.6654)
   **   ~~~   **    Check surface geometry; if OK, use Solar Distribution = FullExterior instead.
   ** Severe  ** Problem in interior solar distribution calculation (CHKBKS)
   **   ~~~   **    Solar Distribution = FullInteriorExterior will not work in Zone=VIVIENDA10_0
   **   ~~~   **    because vertex 15 of back surface=BLOCK VIVIENDA10_0 STOREY 0 ROOF 0001 is in front of receiving surface=BLOCK VIVIENDA10_0 STOREY 0 WALL 0019
   **   ~~~   **    (Dot Product indicator=13.4178)
   **   ~~~   **    Check surface geometry; if OK, use Solar Distribution = FullExterior instead.
   ** Severe  ** Problem in interior solar distribution calculation (CHKBKS)
   **   ~~~   **    Solar Distribution = FullInteriorExterior will not work in Zone=VIVIENDA10_0
   **   ~~~   **    because vertex 16 of back surface=BLOCK VIVIENDA10_0 STOREY 0 ROOF 0001 is in front of receiving surface=BLOCK VIVIENDA10_0 STOREY 0 WALL 0019
   **   ~~~   **    (Dot Product indicator=23.7005)
   **   ~~~   **    Check surface geometry; if OK, use Solar Distribution = FullExterior instead.
   ** Severe  ** Problem in interior solar distribution calculation (CHKBKS)
   **   ~~~   **    Solar Distribution = FullInteriorExterior will not work in Zone=VIVIENDA10_0
   **   ~~~   **    because vertex 17 of back surface=BLOCK VIVIENDA10_0 STOREY 0 ROOF 0001 is in front of receiving surface=BLOCK VIVIENDA10_0 STOREY 0 WALL 0019
   **   ~~~   **    (Dot Product indicator=59.1887)
   **   ~~~   **    Check surface geometry; if OK, use Solar Distribution = FullExterior instead.
   ** Severe  ** Problem in interior solar distribution calculation (CHKBKS)
   **   ~~~   **    Solar Distribution = FullInteriorExterior will not work in Zone=VIVIENDA10_0
   **   ~~~   **    because vertex 18 of back surface=BLOCK VIVIENDA10_0 STOREY 0 ROOF 0001 is in front of receiving surface=BLOCK VIVIENDA10_0 STOREY 0 WALL 0019
   **   ~~~   **    (Dot Product indicator=77.1209)
   **   ~~~   **    Check surface geometry; if OK, use Solar Distribution = FullExterior instead.
   ** Severe  ** Problem in interior solar distribution calculation (CHKBKS)
   **   ~~~   **    Solar Distribution = FullInteriorExterior will not work in Zone=VIVIENDA10_0
   **   ~~~   **    because vertex 19 of back surface=BLOCK VIVIENDA10_0 STOREY 0 ROOF 0001 is in front of receiving surface=BLOCK VIVIENDA10_0 STOREY 0 WALL 0019
   **   ~~~   **    (Dot Product indicator=92.0434)
   **   ~~~   **    Check surface geometry; if OK, use Solar Distribution = FullExterior instead.
   ** Severe  ** Problem in interior solar distribution calculation (CHKBKS)
   **   ~~~   **    Solar Distribution = FullInteriorExterior will not work in Zone=VIVIENDA10_0
   **   ~~~   **    because vertex 20 of back surface=BLOCK VIVIENDA10_0 STOREY 0 ROOF 0001 is in front of receiving surface=BLOCK VIVIENDA10_0 STOREY 0 WALL 0019
   **   ~~~   **    (Dot Product indicator=115.7440)
   **   ~~~   **    Check surface geometry; if OK, use Solar Distribution = FullExterior instead.
   ** Severe  ** Problem in interior solar distribution calculation (CHKBKS)
   **   ~~~   **    Solar Distribution = FullInteriorExterior will not work in Zone=VIVIENDA10_0
   **   ~~~   **    because vertex 1 of back surface=BLOCK VIVIENDA10_0 STOREY 0 WALL 0016 is in front of receiving surface=BLOCK VIVIENDA10_0 STOREY 0 WALL 0020
   **   ~~~   **    (Dot Product indicator=8.9082)
   **   ~~~   **    Check surface geometry; if OK, use Solar Distribution = FullExterior instead.
   ** Severe  ** Problem in interior solar distribution calculation (CHKBKS)
   **   ~~~   **    Solar Distribution = FullInteriorExterior will not work in Zone=VIVIENDA10_0
   **   ~~~   **    because vertex 4 of back surface=BLOCK VIVIENDA10_0 STOREY 0 WALL 0016 is in front of receiving surface=BLOCK VIVIENDA10_0 STOREY 0 WALL 0020
   **   ~~~   **    (Dot Product indicator=8.9082)
   **   ~~~   **    Check surface geometry; if OK, use Solar Distribution = FullExterior instead.
   ** Severe  ** Problem in interior solar distribution calculation (CHKBKS)
   **   ~~~   **    Solar Distribution = FullInteriorExterior will not work in Zone=VIVIENDA10_0
   **   ~~~   **    because vertex 1 of back surface=BLOCK VIVIENDA10_0 STOREY 0 WALL 0017 is in front of receiving surface=BLOCK VIVIENDA10_0 STOREY 0 WALL 0020
   **   ~~~   **    (Dot Product indicator=12.5745)
   **   ~~~   **    Check surface geometry; if OK, use Solar Distribution = FullExterior instead.
   ** Severe  ** Problem in interior solar distribution calculation (CHKBKS)
   **   ~~~   **    Solar Distribution = FullInteriorExterior will not work in Zone=VIVIENDA10_0
   **   ~~~   **    because vertex 2 of back surface=BLOCK VIVIENDA10_0 STOREY 0 WALL 0017 is in front of receiving surface=BLOCK VIVIENDA10_0 STOREY 0 WALL 0020
   **   ~~~   **    (Dot Product indicator=8.9082)
   **   ~~~   **    Check surface geometry; if OK, use Solar Distribution = FullExterior instead.
   ** Severe  ** Problem in interior solar distribution calculation (CHKBKS)
   **   ~~~   **    Solar Distribution = FullInteriorExterior will not work in Zone=VIVIENDA10_0
   **   ~~~   **    because vertex 3 of back surface=BLOCK VIVIENDA10_0 STOREY 0 WALL 0017 is in front of receiving surface=BLOCK VIVIENDA10_0 STOREY 0 WALL 0020
   **   ~~~   **    (Dot Product indicator=8.9082)
   **   ~~~   **    Check surface geometry; if OK, use Solar Distribution = FullExterior instead.
   ** Severe  ** Problem in interior solar distribution calculation (CHKBKS)
   **   ~~~   **    Solar Distribution = FullInteriorExterior will not work in Zone=VIVIENDA10_0
   **   ~~~   **    because vertex 4 of back surface=BLOCK VIVIENDA10_0 STOREY 0 WALL 0017 is in front of receiving surface=BLOCK VIVIENDA10_0 STOREY 0 WALL 0020
   **   ~~~   **    (Dot Product indicator=12.5745)
   **   ~~~   **    Check surface geometry; if OK, use Solar Distribution = FullExterior instead.
   ** Severe  ** Problem in interior solar distribution calculation (CHKBKS)
   **   ~~~   **    Solar Distribution = FullInteriorExterior will not work in Zone=VIVIENDA10_0
   **   ~~~   **    because vertex 1 of back surface=BLOCK VIVIENDA10_0 STOREY 0 WALL 0018 is in front of receiving surface=BLOCK VIVIENDA10_0 STOREY 0 WALL 0020
   **   ~~~   **    (Dot Product indicator=12.6654)
   **   ~~~   **    Check surface geometry; if OK, use Solar Distribution = FullExterior instead.
   ** Severe  ** Problem in interior solar distribution calculation (CHKBKS)
   **   ~~~   **    Solar Distribution = FullInteriorExterior will not work in Zone=VIVIENDA10_0
   **   ~~~   **    because vertex 2 of back surface=BLOCK VIVIENDA10_0 STOREY 0 WALL 0018 is in front of receiving surface=BLOCK VIVIENDA10_0 STOREY 0 WALL 0020
   **   ~~~   **    (Dot Product indicator=12.5745)
   **   ~~~   **    Check surface geometry; if OK, use Solar Distribution = FullExterior instead.
   ** Severe  ** Problem in interior solar distribution calculation (CHKBKS)
   **   ~~~   **    Solar Distribution = FullInteriorExterior will not work in Zone=VIVIENDA10_0
   **   ~~~   **    because vertex 3 of back surface=BLOCK VIVIENDA10_0 STOREY 0 WALL 0018 is in front of receiving surface=BLOCK VIVIENDA10_0 STOREY 0 WALL 0020
   **   ~~~   **    (Dot Product indicator=12.5745)
   **   ~~~   **    Check surface geometry; if OK, use Solar Distribution = FullExterior instead.
   ** Severe  ** Problem in interior solar distribution calculation (CHKBKS)
   **   ~~~   **    Solar Distribution = FullInteriorExterior will not work in Zone=VIVIENDA10_0
   **   ~~~   **    because vertex 4 of back surface=BLOCK VIVIENDA10_0 STOREY 0 WALL 0018 is in front of receiving surface=BLOCK VIVIENDA10_0 STOREY 0 WALL 0020
   **   ~~~   **    (Dot Product indicator=12.6654)
   **   ~~~   **    Check surface geometry; if OK, use Solar Distribution = FullExterior instead.
   ** Severe  ** Problem in interior solar distribution calculation (CHKBKS)
   **   ~~~   **    Solar Distribution = FullInteriorExterior will not work in Zone=VIVIENDA10_0
   **   ~~~   **    because vertex 2 of back surface=BLOCK VIVIENDA10_0 STOREY 0 WALL 0019 is in front of receiving surface=BLOCK VIVIENDA10_0 STOREY 0 WALL 0020
   **   ~~~   **    (Dot Product indicator=12.6654)
   **   ~~~   **    Check surface geometry; if OK, use Solar Distribution = FullExterior instead.
   ** Severe  ** Problem in interior solar distribution calculation (CHKBKS)
   **   ~~~   **    Solar Distribution = FullInteriorExterior will not work in Zone=VIVIENDA10_0
   **   ~~~   **    because vertex 3 of back surface=BLOCK VIVIENDA10_0 STOREY 0 WALL 0019 is in front of receiving surface=BLOCK VIVIENDA10_0 STOREY 0 WALL 0020
   **   ~~~   **    (Dot Product indicator=12.6654)
   **   ~~~   **    Check surface geometry; if OK, use Solar Distribution = FullExterior instead.
   ** Severe  ** Problem in interior solar distribution calculation (CHKBKS)
   **   ~~~   **    Solar Distribution = FullInteriorExterior will not work in Zone=VIVIENDA10_0
   **   ~~~   **    because vertex 1 of back surface=BLOCK VIVIENDA10_0 STOREY 0 WALL 0019 WINDOW is in front of receiving surface=BLOCK VIVIENDA10_0 STOREY 0 WALL 0020
   **   ~~~   **    (Dot Product indicator=12.6590)
   **   ~~~   **    Check surface geometry; if OK, use Solar Distribution = FullExterior instead.
   ** Severe  ** Problem in interior solar distribution calculation (CHKBKS)
   **   ~~~   **    Solar Distribution = FullInteriorExterior will not work in Zone=VIVIENDA10_0
   **   ~~~   **    because vertex 2 of back surface=BLOCK VIVIENDA10_0 STOREY 0 WALL 0019 WINDOW is in front of receiving surface=BLOCK VIVIENDA10_0 STOREY 0 WALL 0020
   **   ~~~   **    (Dot Product indicator=12.6590)
   **   ~~~   **    Check surface geometry; if OK, use Solar Distribution = FullExterior instead.
   ** Severe  ** Problem in interior solar distribution calculation (CHKBKS)
   **   ~~~   **    Solar Distribution = FullInteriorExterior will not work in Zone=VIVIENDA10_0
   **   ~~~   **    because vertex 3 of back surface=BLOCK VIVIENDA10_0 STOREY 0 WALL 0019 WINDOW is in front of receiving surface=BLOCK VIVIENDA10_0 STOREY 0 WALL 0020
   **   ~~~   **    (Dot Product indicator=0.0063)
   **   ~~~   **    Check surface geometry; if OK, use Solar Distribution = FullExterior instead.
   ** Severe  ** Problem in interior solar distribution calculation (CHKBKS)
   **   ~~~   **    Solar Distribution = FullInteriorExterior will not work in Zone=VIVIENDA10_0
   **   ~~~   **    because vertex 4 of back surface=BLOCK VIVIENDA10_0 STOREY 0 WALL 0019 WINDOW is in front of receiving surface=BLOCK VIVIENDA10_0 STOREY 0 WALL 0020
   **   ~~~   **    (Dot Product indicator=0.0063)
   **   ~~~   **    Check surface geometry; if OK, use Solar Distribution = FullExterior instead.
   ** Severe  ** Problem in interior solar distribution calculation (CHKBKS)
   **   ~~~   **    Solar Distribution = FullInteriorExterior will not work in Zone=VIVIENDA10_0
   **   ~~~   **    because vertex 15 of back surface=BLOCK VIVIENDA10_0 STOREY 0 FLOOR 0001 is in front of receiving surface=BLOCK VIVIENDA10_0 STOREY 0 WALL 0020
   **   ~~~   **    (Dot Product indicator=12.6654)
   **   ~~~   **    Check surface geometry; if OK, use Solar Distribution = FullExterior instead.
   ** Severe  ** Problem in interior solar distribution calculation (CHKBKS)
   **   ~~~   **    Solar Distribution = FullInteriorExterior will not work in Zone=VIVIENDA10_0
   **   ~~~   **    because vertex 16 of back surface=BLOCK VIVIENDA10_0 STOREY 0 FLOOR 0001 is in front of receiving surface=BLOCK VIVIENDA10_0 STOREY 0 WALL 0020
   **   ~~~   **    (Dot Product indicator=12.5745)
   **   ~~~   **    Check surface geometry; if OK, use Solar Distribution = FullExterior instead.
   ** Severe  ** Problem in interior solar distribution calculation (CHKBKS)
   **   ~~~   **    Solar Distribution = FullInteriorExterior will not work in Zone=VIVIENDA10_0
   **   ~~~   **    because vertex 17 of back surface=BLOCK VIVIENDA10_0 STOREY 0 FLOOR 0001 is in front of receiving surface=BLOCK VIVIENDA10_0 STOREY 0 WALL 0020
   **   ~~~   **    (Dot Product indicator=8.9082)
   **   ~~~   **    Check surface geometry; if OK, use Solar Distribution = FullExterior instead.
   ** Severe  ** Problem in interior solar distribution calculation (CHKBKS)
   **   ~~~   **    Solar Distribution = FullInteriorExterior will not work in Zone=VIVIENDA10_0
   **   ~~~   **    because vertex 10 of back surface=BLOCK VIVIENDA10_0 STOREY 0 ROOF 0001 is in front of receiving surface=BLOCK VIVIENDA10_0 STOREY 0 WALL 0020
   **   ~~~   **    (Dot Product indicator=8.9082)
   **   ~~~   **    Check surface geometry; if OK, use Solar Distribution = FullExterior instead.
   ** Severe  ** Problem in interior solar distribution calculation (CHKBKS)
   **   ~~~   **    Solar Distribution = FullInteriorExterior will not work in Zone=VIVIENDA10_0
   **   ~~~   **    because vertex 11 of back surface=BLOCK VIVIENDA10_0 STOREY 0 ROOF 0001 is in front of receiving surface=BLOCK VIVIENDA10_0 STOREY 0 WALL 0020
   **   ~~~   **    (Dot Product indicator=12.5745)
   **   ~~~   **    Check surface geometry; if OK, use Solar Distribution = FullExterior instead.
   ** Severe  ** Problem in interior solar distribution calculation (CHKBKS)
   **   ~~~   **    Solar Distribution = FullInteriorExterior will not work in Zone=VIVIENDA10_0
   **   ~~~   **    because vertex 12 of back surface=BLOCK VIVIENDA10_0 STOREY 0 ROOF 0001 is in front of receiving surface=BLOCK VIVIENDA10_0 STOREY 0 WALL 0020
   **   ~~~   **    (Dot Product indicator=12.6654)
   **   ~~~   **    Check surface geometry; if OK, use Solar Distribution = FullExterior instead.
   ** Severe  ** Problem in interior solar distribution calculation (CHKBKS)
   **   ~~~   **    Solar Distribution = FullInteriorExterior will not work in Zone=VIVIENDA9_0
   **   ~~~   **    because vertex 1 of back surface=BLOCK VIVIENDA9_0 STOREY 0 WALL 0001 is in front of receiving surface=BLOCK VIVIENDA9_0 STOREY 0 WALL 0011
   **   ~~~   **    (Dot Product indicator=100.6960)
   **   ~~~   **    Check surface geometry; if OK, use Solar Distribution = FullExterior instead.
   ** Severe  ** Problem in interior solar distribution calculation (CHKBKS)
   **   ~~~   **    Solar Distribution = FullInteriorExterior will not work in Zone=VIVIENDA9_0
[...]
   **   ~~~   **    Check surface geometry; if OK, use Solar Distribution = FullExterior instead.
   ** Severe  ** Problem in interior solar distribution calculation (CHKBKS)
   **   ~~~   **    Solar Distribution = FullInteriorExterior will not work in Zone=VIVIENDA2_2
   **   ~~~   **    because vertex 3 of back surface=BLOCK VIVIENDA2_2 STOREY 0 WALL 0014 is in front of receiving surface=BLOCK VIVIENDA2_2 STOREY 0 WALL 0012
   **   ~~~   **    (Dot Product indicator=34.2234)
   **   ~~~   **    Check surface geometry; if OK, use Solar Distribution = FullExterior instead.
   ** Severe  ** Problem in interior solar distribution calculation (CHKBKS)
   **   ~~~   **    Solar Distribution = FullInteriorExterior will not work in Zone=VIVIENDA2_2
   **   ~~~   **    because vertex 4 of back surface=BLOCK VIVIENDA2_2 STOREY 0 WALL 0014 is in front of receiving surface=BLOCK VIVIENDA2_2 STOREY 0 WALL 0012
   **   ~~~   **    (Dot Product indicator=34.2702)
   **   ~~~   **    Check surface geometry; if OK, use Solar Distribution = FullExterior instead.
   ** Severe  ** Problem in interior solar distribution calculation (CHKBKS)
   **   ~~~   **    Solar Distribution = FullInteriorExterior will not work in Zone=VIVIENDA2_2
   **   ~~~   **    because vertex 1 of back surface=BLOCK VIVIENDA2_2 STOREY 0 WALL 0015 is in front of receiving surface=BLOCK VIVIENDA2_2 STOREY 0 WALL 0012
   **   ~~~   **    (Dot Product indicator=38.7720)
   **   ~~~   **    Check surface geometry; if OK, use Solar Distribution = FullExterior instead.
   ** Severe  ** Problem in interior solar distribution calculation (CHKBKS)
   **   ~~~   **    Solar Distribution = FullInteriorExterior will not work in Zone=VIVIENDA2_2
   **   ~~~   **    because vertex 2 of back surface=BLOCK VIVIENDA2_2 STOREY 0 WALL 0015 is in front of receiving surface=BLOCK VIVIENDA2_2 STOREY 0 WALL 0012
   **   ~~~   **    (Dot Product indicator=34.2702)
   **   ~~~   **    Check surface geometry; if OK, use Solar Distribution = FullExterior instead.
   ** Severe  ** Problem in interior solar distribution calculation (CHKBKS)
   **   ~~~   **    Solar Distribution = FullInteriorExterior will not work in Zone=VIVIENDA2_2
   **   ~~~   **    because vertex 3 of back surface=BLOCK VIVIENDA2_2 STOREY 0 WALL 0015 is in front of receiving surface=BLOCK VIVIENDA2_2 STOREY 0 WALL 0012
   **   ~~~   **    (Dot Product indicator=34.2702)
   **   ~~~   **    Check surface geometry; if OK, use Solar Distribution = FullExterior instead.
   ** Severe  ** Problem in interior solar distribution calculation (CHKBKS)
   **   ~~~   **    Solar Distribution = FullInteriorExterior will not work in Zone=VIVIENDA2_2
   **   ~~~   **    because vertex 4 of back surface=BLOCK VIVIENDA2_2 STOREY 0 WALL 0015 is in front of receiving surface=BLOCK VIVIENDA2_2 STOREY 0 WALL 0012
   **   ~~~   **    (Dot Product indicator=38.7720)
   **   ~~~   **    Check surface geometry; if OK, use Solar Distribution = FullExterior instead.
   ** Severe  ** Problem in interior solar distribution calculation (CHKBKS)
   **   ~~~   **    Solar Distribution = FullInteriorExterior will not work in Zone=VIVIENDA2_2
   **   ~~~   **    because vertex 1 of back surface=BLOCK VIVIENDA2_2 STOREY 0 WALL 0016 is in front of receiving surface=BLOCK VIVIENDA2_2 STOREY 0 WALL 0012
   **   ~~~   **    (Dot Product indicator=38.7678)
   **   ~~~   **    Check surface geometry; if OK, use Solar Distribution = FullExterior instead.
   ** Severe  ** Problem in interior solar distribution calculation (CHKBKS)
   **   ~~~   **    Solar Distribution = FullInteriorExterior will not work in Zone=VIVIENDA2_2
   **   ~~~   **    because vertex 2 of back surface=BLOCK VIVIENDA2_2 STOREY 0 WALL 0016 is in front of receiving surface=BLOCK VIVIENDA2_2 STOREY 0 WALL 0012
   **   ~~~   **    (Dot Product indicator=38.7720)
   **   ~~~   **    Check surface geometry; if OK, use Solar Distribution = FullExterior instead.
   ** Severe  ** Problem in interior solar distribution calculation (CHKBKS)
   **   ~~~   **    Solar Distribution = FullInteriorExterior will not work in Zone=VIVIENDA2_2
   **   ~~~   **    because vertex 3 of back surface=BLOCK VIVIENDA2_2 STOREY 0 WALL 0016 is in front of receiving surface=BLOCK VIVIENDA2_2 STOREY 0 WALL 0012
   **   ~~~   **    (Dot Product indicator=38.7720)
   **   ~~~   **    Check surface geometry; if OK, use Solar Distribution = FullExterior instead.
   ** Severe  ** Problem in interior solar distribution calculation (CHKBKS)
   **   ~~~   **    Solar Distribution = FullInteriorExterior will not work in Zone=VIVIENDA2_2
   **   ~~~   **    because vertex 4 of back surface=BLOCK VIVIENDA2_2 STOREY 0 WALL 0016 is in front of receiving surface=BLOCK VIVIENDA2_2 STOREY 0 WALL 0012
   **   ~~~   **    (Dot Product indicator=38.7678)
   **   ~~~   **    Check surface geometry; if OK, use Solar Distribution = FullExterior instead.
   ** Severe  ** Problem in interior solar distribution calculation (CHKBKS)
   **   ~~~   **    Solar Distribution = FullInteriorExterior will not work in Zone=VIVIENDA2_2
   **   ~~~   **    because vertex 1 of back surface=BLOCK VIVIENDA2_2 STOREY 0 FLOOR 0001 is in front of receiving surface=BLOCK VIVIENDA2_2 STOREY 0 WALL 0012
   **   ~~~   **    (Dot Product indicator=36.8514)
   **   ~~~   **    Check surface geometry; if OK, use Solar Distribution = FullExterior instead.
   ** Severe  ** Problem in interior solar distribution calculation (CHKBKS)
   **   ~~~   **    Solar Distribution = FullInteriorExterior will not work in Zone=VIVIENDA2_2
   **   ~~~   **    because vertex 2 of back surface=BLOCK VIVIENDA2_2 STOREY 0 FLOOR 0001 is in front of receiving surface=BLOCK VIVIENDA2_2 STOREY 0 WALL 0012
   **   ~~~   **    (Dot Product indicator=18.7455)
   **   ~~~   **    Check surface geometry; if OK, use Solar Distribution = FullExterior instead.
   ** Severe  ** Problem in interior solar distribution calculation (CHKBKS)
   **   ~~~   **    Solar Distribution = FullInteriorExterior will not work in Zone=VIVIENDA2_2
   **   ~~~   **    because vertex 9 of back surface=BLOCK VIVIENDA2_2 STOREY 0 FLOOR 0001 is in front of receiving surface=BLOCK VIVIENDA2_2 STOREY 0 WALL 0012
   **   ~~~   **    (Dot Product indicator=38.7678)
   **   ~~~   **    Check surface geometry; if OK, use Solar Distribution = FullExterior instead.
   ** Severe  ** Problem in interior solar distribution calculation (CHKBKS)
   **   ~~~   **    Solar Distribution = FullInteriorExterior will not work in Zone=VIVIENDA2_2
   **   ~~~   **    because vertex 10 of back surface=BLOCK VIVIENDA2_2 STOREY 0 FLOOR 0001 is in front of receiving surface=BLOCK VIVIENDA2_2 STOREY 0 WALL 0012
   **   ~~~   **    (Dot Product indicator=38.7720)
   **   ~~~   **    Check surface geometry; if OK, use Solar Distribution = FullExterior instead.
   ** Severe  ** Problem in interior solar distribution calculation (CHKBKS)
   **   ~~~   **    Solar Distribution = FullInteriorExterior will not work in Zone=VIVIENDA2_2
   **   ~~~   **    because vertex 11 of back surface=BLOCK VIVIENDA2_2 STOREY 0 FLOOR 0001 is in front of receiving surface=BLOCK VIVIENDA2_2 STOREY 0 WALL 0012
   **   ~~~   **    (Dot Product indicator=34.2702)
   **   ~~~   **    Check surface geometry; if OK, use Solar Distribution = FullExterior instead.
   ** Severe  ** Problem in interior solar distribution calculation (CHKBKS)
   **   ~~~   **    Solar Distribution = FullInteriorExterior will not work in Zone=VIVIENDA2_2
   **   ~~~   **    because vertex 12 of back surface=BLOCK VIVIENDA2_2 STOREY 0 FLOOR 0001 is in front of receiving surface=BLOCK VIVIENDA2_2 STOREY 0 WALL 0012
   **   ~~~   **    (Dot Product indicator=34.2234)
   **   ~~~   **    Check surface geometry; if OK, use Solar Distribution = FullExterior instead.
   ** Severe  ** Problem in interior solar distribution calculation (CHKBKS)
   **   ~~~   **    Solar Distribution = FullInteriorExterior will not work in Zone=VIVIENDA2_2
   **   ~~~   **    because vertex 15 of back surface=BLOCK VIVIENDA2_2 STOREY 0 FLOOR 0001 is in front of receiving surface=BLOCK VIVIENDA2_2 STOREY 0 WALL 0012
   **   ~~~   **    (Dot Product indicator=24.2550)
   **   ~~~   **    Check surface geometry; if OK, use Solar Distribution = FullExterior instead.
   ** Severe  ** Problem in interior solar distribution calculation (CHKBKS)
   **   ~~~   **    Solar Distribution = FullInteriorExterior will not work in Zone=VIVIENDA2_2
   **   ~~~   **    because vertex 16 of back surface=BLOCK VIVIENDA2_2 STOREY 0 FLOOR 0001 is in front of receiving surface=BLOCK VIVIENDA2_2 STOREY 0 WALL 0012
   **   ~~~   **    (Dot Product indicator=29.0709)
   **   ~~~   **    Check surface geometry; if OK, use Solar Distribution = FullExterior instead.
   ** Severe  ** Problem in interior solar distribution calculation (CHKBKS)
   **   ~~~   **    Solar Distribution = FullInteriorExterior will not work in Zone=VIVIENDA2_2
   **   ~~~   **    because vertex 6 of back surface=BLOCK VIVIENDA2_2 STOREY 0 ROOF 0001 is in front of receiving surface=BLOCK VIVIENDA2_2 STOREY 0 WALL 0012
   **   ~~~   **    (Dot Product indicator=18.7455)
   **   ~~~   **    Check surface geometry; if OK, use Solar Distribution = FullExterior instead.
   ** Severe  ** Problem in interior solar distribution calculation (CHKBKS)
   **   ~~~   **    Solar Distribution = FullInteriorExterior will not work in Zone=VIVIENDA2_2
   **   ~~~   **    because vertex 7 of back surface=BLOCK VIVIENDA2_2 STOREY 0 ROOF 0001 is in front of receiving surface=BLOCK VIVIENDA2_2 STOREY 0 WALL 0012
   **   ~~~   **    (Dot Product indicator=36.8514)
   **   ~~~   **    Check surface geometry; if OK, use Solar Distribution = FullExterior instead.
   ** Severe  ** Problem in interior solar distribution calculation (CHKBKS)
   **   ~~~   **    Solar Distribution = FullInteriorExterior will not work in Zone=VIVIENDA2_2
   **   ~~~   **    because vertex 8 of back surface=BLOCK VIVIENDA2_2 STOREY 0 ROOF 0001 is in front of receiving surface=BLOCK VIVIENDA2_2 STOREY 0 WALL 0012
   **   ~~~   **    (Dot Product indicator=29.0709)
   **   ~~~   **    Check surface geometry; if OK, use Solar Distribution = FullExterior instead.
   ** Severe  ** Problem in interior solar distribution calculation (CHKBKS)
   **   ~~~   **    Solar Distribution = FullInteriorExterior will not work in Zone=VIVIENDA2_2
   **   ~~~   **    because vertex 9 of back surface=BLOCK VIVIENDA2_2 STOREY 0 ROOF 0001 is in front of receiving surface=BLOCK VIVIENDA2_2 STOREY 0 WALL 0012
   **   ~~~   **    (Dot Product indicator=24.2550)
   **   ~~~   **    Check surface geometry; if OK, use Solar Distribution = FullExterior instead.
   ** Severe  ** Problem in interior solar distribution calculation (CHKBKS)
   **   ~~~   **    Solar Distribution = FullInteriorExterior will not work in Zone=VIVIENDA2_2
   **   ~~~   **    because vertex 12 of back surface=BLOCK VIVIENDA2_2 STOREY 0 ROOF 0001 is in front of receiving surface=BLOCK VIVIENDA2_2 STOREY 0 WALL 0012
   **   ~~~   **    (Dot Product indicator=34.2234)
   **   ~~~   **    Check surface geometry; if OK, use Solar Distribution = FullExterior instead.
   ** Severe  ** Problem in interior solar distribution calculation (CHKBKS)
   **   ~~~   **    Solar Distribution = FullInteriorExterior will not work in Zone=VIVIENDA2_2
   **   ~~~   **    because vertex 13 of back surface=BLOCK VIVIENDA2_2 STOREY 0 ROOF 0001 is in front of receiving surface=BLOCK VIVIENDA2_2 STOREY 0 WALL 0012
   **   ~~~   **    (Dot Product indicator=34.2702)
   **   ~~~   **    Check surface geometry; if OK, use Solar Distribution = FullExterior instead.
   ** Severe  ** Problem in interior solar distribution calculation (CHKBKS)
   **   ~~~   **    Solar Distribution = FullInteriorExterior will not work in Zone=VIVIENDA2_2
   **   ~~~   **    because vertex 14 of back surface=BLOCK VIVIENDA2_2 STOREY 0 ROOF 0001 is in front of receiving surface=BLOCK VIVIENDA2_2 STOREY 0 WALL 0012
   **   ~~~   **    (Dot Product indicator=38.7720)
   **   ~~~   **    Check surface geometry; if OK, use Solar Distribution = FullExterior instead.
   ** Severe  ** Problem in interior solar distribution calculation (CHKBKS)
   **   ~~~   **    Solar Distribution = FullInteriorExterior will not work in Zone=VIVIENDA2_2
   **   ~~~   **    because vertex 15 of back surface=BLOCK VIVIENDA2_2 STOREY 0 ROOF 0001 is in front of receiving surface=BLOCK VIVIENDA2_2 STOREY 0 WALL 0012
   **   ~~~   **    (Dot Product indicator=38.7678)
   **   ~~~   **    Check surface geometry; if OK, use Solar Distribution = FullExterior instead.
   ** Severe  ** Problem in interior solar distribution calculation (CHKBKS)
   **   ~~~   **    Solar Distribution = FullInteriorExterior will not work in Zone=COMUN1_1
   **   ~~~   **    because vertex 1 of back surface=BLOCK COMUN1_1 STOREY 0 WALL 0008 is in front of receiving surface=BLOCK COMUN1_1 STOREY 0 WALL 0007
   **   ~~~   **    (Dot Product indicator=0.0135)
   **   ~~~   **    Check surface geometry; if OK, use Solar Distribution = FullExterior instead.
   ** Severe  ** Problem in interior solar distribution calculation (CHKBKS)
   **   ~~~   **    Solar Distribution = FullInteriorExterior will not work in Zone=COMUN1_1
   **   ~~~   **    because vertex 4 of back surface=BLOCK COMUN1_1 STOREY 0 WALL 0008 is in front of receiving surface=BLOCK COMUN1_1 STOREY 0 WALL 0007
   **   ~~~   **    (Dot Product indicator=0.0135)
   **   ~~~   **    Check surface geometry; if OK, use Solar Distribution = FullExterior instead.
   ** Severe  ** Problem in interior solar distribution calculation (CHKBKS)
   **   ~~~   **    Solar Distribution = FullInteriorExterior will not work in Zone=COMUN1_1
   **   ~~~   **    because vertex 2 of back surface=BLOCK COMUN1_1 STOREY 0 WALL 0009 is in front of receiving surface=BLOCK COMUN1_1 STOREY 0 WALL 0007
   **   ~~~   **    (Dot Product indicator=0.0135)
   **   ~~~   **    Check surface geometry; if OK, use Solar Distribution = FullExterior instead.
   ** Severe  ** Problem in interior solar distribution calculation (CHKBKS)
   **   ~~~   **    Solar Distribution = FullInteriorExterior will not work in Zone=COMUN1_1
   **   ~~~   **    because vertex 3 of back surface=BLOCK COMUN1_1 STOREY 0 WALL 0009 is in front of receiving surface=BLOCK COMUN1_1 STOREY 0 WALL 0007
   **   ~~~   **    (Dot Product indicator=0.0135)
   **   ~~~   **    Check surface geometry; if OK, use Solar Distribution = FullExterior instead.
   ** Severe  ** Problem in interior solar distribution calculation (CHKBKS)
   **   ~~~   **    Solar Distribution = FullInteriorExterior will not work in Zone=COMUN1_1
   **   ~~~   **    because vertex 14 of back surface=BLOCK COMUN1_1 STOREY 0 FLOOR 0001 is in front of receiving surface=BLOCK COMUN1_1 STOREY 0 WALL 0007
   **   ~~~   **    (Dot Product indicator=0.0135)
   **   ~~~   **    Check surface geometry; if OK, use Solar Distribution = FullExterior instead.
   ** Severe  ** Problem in interior solar distribution calculation (CHKBKS)
   **   ~~~   **    Solar Distribution = FullInteriorExterior will not work in Zone=COMUN1_1
   **   ~~~   **    because vertex 5 of back surface=BLOCK COMUN1_1 STOREY 0 ROOF 0001 is in front of receiving surface=BLOCK COMUN1_1 STOREY 0 WALL 0007
   **   ~~~   **    (Dot Product indicator=0.0135)
   **   ~~~   **    Check surface geometry; if OK, use Solar Distribution = FullExterior instead.
   ** Warning ** DetermineShadowingCombinations: There are 120 surfaces which are receiving surfaces and are non-convex.
   **   ~~~   ** ...Shadowing values may be inaccurate. Check .shd report file for more surface shading details
   **   ~~~   ** ...Add Output:Diagnostics,DisplayExtraWarnings; to see individual warnings for each surface.
   ** Severe  ** DetermineShadowingCombinations: There are 33 surfaces which are casting surfaces and are non-convex.
   **   ~~~   ** ...Shadowing values may be inaccurate. Check .shd report file for more surface shading details
   **   ~~~   ** ...Add Output:Diagnostics,DisplayExtraWarnings; to see individual severes for each surface.
   ** Warning ** DeterminePolygonOverlap: Too many figures [>3000]  detected in an overlap calculation. Use Output:Diagnostics,DisplayExtraWarnings; for more details.
   ************* Testing Individual Branch Integrity
   ************* All Branches passed integrity testing
   ************* Testing Individual Supply Air Path Integrity
   ************* All Supply Air Paths passed integrity testing
   ************* Testing Individual Return Air Path Integrity
   ************* All Return Air Paths passed integrity testing
   ************* No node connection errors were found.
   ************* Beginning Simulation
   ************* Simulation Error Summary *************
   ** Warning ** The following Report Variables were requested but not generated -- check.rdd file
   **   ~~~   ** Either the IDF did not contain these elements, the variable name is misspelled,
   **   ~~~   ** or the requested variable is an advanced output which requires Output : Diagnostics, DisplayAdvancedReportVariables;
   ************* Key=*, VarName=ZONE IDEAL LOADS SUPPLY AIR TOTAL COOLING ENERGY, Frequency=Monthly
   ************* Key=*, VarName=ZONE IDEAL LOADS SUPPLY AIR TOTAL HEATING ENERGY, Frequency=Monthly
   ************* Key=*, VarName=COOLING COIL ELECTRIC ENERGY, Frequency=Monthly
   ************* Key=*, VarName=CHILLER ELECTRIC ENERGY, Frequency=Monthly
   ************* Key=*, VarName=BOILER GAS ENERGY, Frequency=Monthly
   ************* Key=*, VarName=HEATING COIL TOTAL HEATING ENERGY, Frequency=Monthly
   ************* Key=*, VarName=HEATING COIL GAS ENERGY, Frequency=Monthly
   ************* Key=*, VarName=HEATING COIL ELECTRIC ENERGY, Frequency=Monthly
   ************* Key=*, VarName=HUMIDIFIER ELECTRIC ENERGY, Frequency=Monthly
   ************* Key=*, VarName=FAN ELECTRIC ENERGY, Frequency=Monthly
   ************* Key=*, VarName=ZONE VENTILATION FAN ELECTRIC ENERGY, Frequency=Monthly
   ************* Key=*, VarName=EARTH TUBE FAN ELECTRIC ENERGY, Frequency=Monthly
   ************* Key=*, VarName=PUMP ELECTRIC ENERGY, Frequency=Monthly
   ************* Key=*, VarName=ZONE VRF AIR TERMINAL COOLING ELECTRIC ENERGY, Frequency=Monthly
   ************* Key=*, VarName=ZONE VRF AIR TERMINAL HEATING ELECTRIC ENERGY, Frequency=Monthly
   ************* Key=*, VarName=VRF HEAT PUMP COOLING ELECTRIC ENERGY, Frequency=Monthly
   ************* Key=*, VarName=VRF HEAT PUMP HEATING ELECTRIC ENERGY, Frequency=Monthly
   ************* Key=*, VarName=CHILLER HEATER SYSTEM COOLING ELECTRIC ENERGY, Frequency=Monthly
   ************* Key=*, VarName=CHILLER HEATER SYSTEM HEATING ELECTRIC ENERGY, Frequency=Monthly
   ************* There are 8 unused schedules in input.
   ************* There are 11 unused week schedules in input.
   ************* There are 30 unused day schedules in input.
   ************* Use Output:Diagnostics,DisplayUnusedSchedules; to see them.
   *************
   ************* ===== Final Error Summary =====
   ************* The following error categories occurred.  Consider correcting or noting.
   ************* Nominally Unused Constructions
   ************* ..The nominally unused constructions warning is provided to alert you to potential conditions that can cause
   ************* ..extra time during simulation. Each construction is calculated by the algorithm indicated in the HeatBalanceAlgorithm
   ************* ..object. You may remove the constructions indicated (when you use the DisplayExtraWarnings option).
   *************
   ************* EnergyPlus Warmup Error Summary. During Warmup: 0 Warning; 0 Severe Errors.
   ************* EnergyPlus Sizing Error Summary. During Sizing: 2 Warning; 0 Severe Errors.
   ************* EnergyPlus Completed Successfully-- 135 Warning; 1705 Severe Errors; Elapsed Time=00hr 17min 39.15sec
