Program Version,EnergyPlus, Version 8.8.0-7c3bbe4830, YMD=2019.10.08 12:41
! <Version>, Version ID
 Version, 8.8.0
! <Timesteps per Hour>, #TimeSteps, Minutes per TimeStep {minutes}
 Timesteps per Hour,  6, 10
! <System Convergence Limits>, Minimum System TimeStep {minutes}, Max HVAC Iterations, Minimum Plant Iterations, Maximum Plant Iterations
 System Convergence Limits, 1, 20, 2, 8
! <Simulation Control>, Do Zone Sizing, Do System Sizing, Do Plant Sizing, Do Design Days, Do Weather Simulation, Do HVAC Sizing Simulation
 Simulation Control, Yes, Yes, Yes, No, Yes, No
! <Output Reporting Tolerances>, Tolerance for Time Heating Setpoint Not Met, Tolerance for Zone Cooling Setpoint Not Met Time
 Output Reporting Tolerances, 0.200, 0.200, 
! <Site:GroundTemperature:BuildingSurface>,Jan{C},Feb{C},Mar{C},Apr{C},May{C},Jun{C},Jul{C},Aug{C},Sep{C},Oct{C},Nov{C},Dec{C}
 Site:GroundTemperature:BuildingSurface,  18.00,  18.00,  18.00,  18.00,  18.00,  18.00,  18.00,  18.00,  18.00,  18.00,  18.00,  18.00
! <Site:GroundTemperature:FCfactorMethod>,Jan{C},Feb{C},Mar{C},Apr{C},May{C},Jun{C},Jul{C},Aug{C},Sep{C},Oct{C},Nov{C},Dec{C}
 Site:GroundTemperature:FCfactorMethod,   9.17,   8.53,   9.66,  11.44,  16.10,  19.70,  22.12,  22.86,  21.60,  18.81,  15.08,  11.62
! <Site:GroundTemperature:Shallow>,Jan{C},Feb{C},Mar{C},Apr{C},May{C},Jun{C},Jul{C},Aug{C},Sep{C},Oct{C},Nov{C},Dec{C}
 Site:GroundTemperature:Shallow,  13.00,  13.00,  13.00,  13.00,  13.00,  13.00,  13.00,  13.00,  13.00,  13.00,  13.00,  13.00
! <Site:GroundTemperature:Deep>,Jan{C},Feb{C},Mar{C},Apr{C},May{C},Jun{C},Jul{C},Aug{C},Sep{C},Oct{C},Nov{C},Dec{C}
 Site:GroundTemperature:Deep,  16.00,  16.00,  16.00,  16.00,  16.00,  16.00,  16.00,  16.00,  16.00,  16.00,  16.00,  16.00
! <Site:GroundReflectance>,Jan{dimensionless},Feb{dimensionless},Mar{dimensionless},Apr{dimensionless},May{dimensionless},Jun{dimensionless},Jul{dimensionless},Aug{dimensionless},Sep{dimensionless},Oct{dimensionless},Nov{dimensionless},Dec{dimensionless}
 Site:GroundReflectance,  0.20,  0.20,  0.20,  0.20,  0.20,  0.20,  0.20,  0.20,  0.20,  0.20,  0.20,  0.20
! <Site:GroundReflectance:SnowModifier>, Normal, Daylighting {dimensionless}
 Site:GroundReflectance:SnowModifier,   1.000,   1.000
! <Site:GroundReflectance:Snow>,Jan{dimensionless},Feb{dimensionless},Mar{dimensionless},Apr{dimensionless},May{dimensionless},Jun{dimensionless},Jul{dimensionless},Aug{dimensionless},Sep{dimensionless},Oct{dimensionless},Nov{dimensionless},Dec{dimensionless}
 Site:GroundReflectance:Snow,  0.20,  0.20,  0.20,  0.20,  0.20,  0.20,  0.20,  0.20,  0.20,  0.20,  0.20,  0.20
! <Site:GroundReflectance:Snow:Daylighting>,Jan{dimensionless},Feb{dimensionless},Mar{dimensionless},Apr{dimensionless},May{dimensionless},Jun{dimensionless},Jul{dimensionless},Aug{dimensionless},Sep{dimensionless},Oct{dimensionless},Nov{dimensionless},Dec{dimensionless}
 Site:GroundReflectance:Snow:Daylighting,  0.20,  0.20,  0.20,  0.20,  0.20,  0.20,  0.20,  0.20,  0.20,  0.20,  0.20,  0.20
! <Environment:Weather Station>,Wind Sensor Height Above Ground {m},Wind Speed Profile Exponent {},Wind Speed Profile Boundary Layer Thickness {m},Air Temperature Sensor Height Above Ground {m},Wind Speed Modifier Coefficient-Internal,Temperature Modifier Coefficient-Internal
Environment:Weather Station,10.000,0.140,270.000,1.500,1.586,9.750E-003
! <Site:Location>, Location Name, Latitude {N+/S- Deg}, Longitude {E+/W- Deg},  Time Zone Number {GMT+/-}, Elevation {m},  Standard Pressure at Elevation {Pa}, Standard RhoAir at Elevation
Site:Location,BARCELONA - ESP IWEC Data WMO#=081810,41.28,2.07,1.00,6.00,101253,1.2035
! <Building Information>, Building Name,North Axis {deg},Terrain,  Loads Convergence Tolerance Value,Temperature Convergence Tolerance Value,  Solar Distribution,Maximum Number of Warmup Days,Minimum Number of Warmup Days
 Building Information,bcn,0.000,City,4.00000E-002,0.40000,FullInteriorAndExteriorWithReflectionsFromExteriorSurfaces,25,6
! <Inside Convection Algorithm>, Algorithm {Simple | TARP | CeilingDiffuser | AdaptiveConvectionAlgorithm}
Inside Convection Algorithm,TARP
! <Outside Convection Algorithm>, Algorithm {SimpleCombined | TARP | MoWitt | DOE-2 | AdaptiveConvectionAlgorithm}
Outside Convection Algorithm,DOE-2
! <Sky Radiance Distribution>, Value {Anisotropic}
Sky Radiance Distribution,Anisotropic
! <Zone Air Solution Algorithm>, Value {ThirdOrderBackwardDifference | AnalyticalSolution | EulerMethod}
 Zone Air Solution Algorithm, ThirdOrderBackwardDifference
! <Zone Air Carbon Dioxide Balance Simulation>, Simulation {Yes/No}, Carbon Dioxide Concentration
 Zone Air Carbon Dioxide Balance Simulation, No,N/A
! <Zone Air Generic Contaminant Balance Simulation>, Simulation {Yes/No}, Generic Contaminant Concentration
 Zone Air Generic Contaminant Balance Simulation, No,N/A
! <Zone Air Mass Flow Balance Simulation>, Enforce Mass Balance, Adjust Zone Mixing, Adjust Zone Infiltration {AddInfiltration | AdjustInfiltration | None}, Infiltration Zones {MixingSourceZonesOnly | AllZones}
 Zone Air Mass Flow Balance Simulation, No,N/A,N/A,N/A
! <HVACSystemRootFindingAlgorithm>, Value {RegulaFalsi | Bisection | BisectionThenRegulaFalsi | RegulaFalsiThenBisection}
 HVACSystemRootFindingAlgorithm, RegulaFalsi
! <Environment:Site Atmospheric Variation>,Wind Speed Profile Exponent {},Wind Speed Profile Boundary Layer Thickness {m},Air Temperature Gradient Coefficient {K/m}
Environment:Site Atmospheric Variation,0.330,460.000,6.500000E-003
! <Surface Geometry>,Starting Corner,Vertex Input Direction,Coordinate System,Daylight Reference Point Coordinate System,Rectangular (Simple) Surface Coordinate System
 Surface Geometry,LowerLeftCorner,Counterclockwise,RelativeCoordinateSystem,RelativeCoordinateSystem,RelativeToZoneOrigin
! <ShadingProperty Reflectance>,Shading Surface Name,Shading Type,Diffuse Solar Reflectance, Diffuse Visible Reflectance,Surface Glazing Fraction,Surface Glazing Contruction
ShadingProperty Reflectance,TERRACE0_0_1,Detached Shading:Fixed,0.20,0.20,0.00, N/A
ShadingProperty Reflectance,Mir-TERRACE0_0_1,Detached Shading:Fixed,0.20,0.20,0.00, N/A
ShadingProperty Reflectance,TERRACE0_0_2,Detached Shading:Fixed,0.20,0.20,0.00, N/A
ShadingProperty Reflectance,Mir-TERRACE0_0_2,Detached Shading:Fixed,0.20,0.20,0.00, N/A
ShadingProperty Reflectance,TERRACE0_0_3,Detached Shading:Fixed,0.20,0.20,0.00, N/A
ShadingProperty Reflectance,Mir-TERRACE0_0_3,Detached Shading:Fixed,0.20,0.20,0.00, N/A
ShadingProperty Reflectance,TERRACE0_0_4,Detached Shading:Fixed,0.20,0.20,0.00, N/A
ShadingProperty Reflectance,Mir-TERRACE0_0_4,Detached Shading:Fixed,0.20,0.20,0.00, N/A
ShadingProperty Reflectance,TERRACE0_0_5,Detached Shading:Fixed,0.20,0.20,0.00, N/A
ShadingProperty Reflectance,Mir-TERRACE0_0_5,Detached Shading:Fixed,0.20,0.20,0.00, N/A
ShadingProperty Reflectance,TERRACE0_0_6,Detached Shading:Fixed,0.20,0.20,0.00, N/A
ShadingProperty Reflectance,Mir-TERRACE0_0_6,Detached Shading:Fixed,0.20,0.20,0.00, N/A
ShadingProperty Reflectance,TERRACE0_0_7,Detached Shading:Fixed,0.20,0.20,0.00, N/A
ShadingProperty Reflectance,Mir-TERRACE0_0_7,Detached Shading:Fixed,0.20,0.20,0.00, N/A
ShadingProperty Reflectance,TERRACE0_0_8,Detached Shading:Fixed,0.20,0.20,0.00, N/A
ShadingProperty Reflectance,Mir-TERRACE0_0_8,Detached Shading:Fixed,0.20,0.20,0.00, N/A
ShadingProperty Reflectance,TERRACE0_0_9,Detached Shading:Fixed,0.20,0.20,0.00, N/A
ShadingProperty Reflectance,Mir-TERRACE0_0_9,Detached Shading:Fixed,0.20,0.20,0.00, N/A
ShadingProperty Reflectance,TERRACE0_0_10,Detached Shading:Fixed,0.20,0.20,0.00, N/A
ShadingProperty Reflectance,Mir-TERRACE0_0_10,Detached Shading:Fixed,0.20,0.20,0.00, N/A
ShadingProperty Reflectance,TERRACE0_0_11,Detached Shading:Fixed,0.20,0.20,0.00, N/A
ShadingProperty Reflectance,Mir-TERRACE0_0_11,Detached Shading:Fixed,0.20,0.20,0.00, N/A
ShadingProperty Reflectance,TERRACE0_0_12,Detached Shading:Fixed,0.20,0.20,0.00, N/A
ShadingProperty Reflectance,Mir-TERRACE0_0_12,Detached Shading:Fixed,0.20,0.20,0.00, N/A
ShadingProperty Reflectance,TERRACE0_0_13,Detached Shading:Fixed,0.20,0.20,0.00, N/A
ShadingProperty Reflectance,Mir-TERRACE0_0_13,Detached Shading:Fixed,0.20,0.20,0.00, N/A
ShadingProperty Reflectance,TERRACE0_0_14,Detached Shading:Fixed,0.20,0.20,0.00, N/A
ShadingProperty Reflectance,Mir-TERRACE0_0_14,Detached Shading:Fixed,0.20,0.20,0.00, N/A
ShadingProperty Reflectance,TERRACE0_0_15,Detached Shading:Fixed,0.20,0.20,0.00, N/A
ShadingProperty Reflectance,Mir-TERRACE0_0_15,Detached Shading:Fixed,0.20,0.20,0.00, N/A
ShadingProperty Reflectance,TERRACE0_0_16,Detached Shading:Fixed,0.20,0.20,0.00, N/A
ShadingProperty Reflectance,Mir-TERRACE0_0_16,Detached Shading:Fixed,0.20,0.20,0.00, N/A
ShadingProperty Reflectance,TERRACE0_0_17,Detached Shading:Fixed,0.20,0.20,0.00, N/A
ShadingProperty Reflectance,Mir-TERRACE0_0_17,Detached Shading:Fixed,0.20,0.20,0.00, N/A
ShadingProperty Reflectance,TERRACEFLOOR0_0,Detached Shading:Fixed,0.20,0.20,0.00, N/A
ShadingProperty Reflectance,Mir-TERRACEFLOOR0_0,Detached Shading:Fixed,0.20,0.20,0.00, N/A
ShadingProperty Reflectance,TERRACE0_1_1,Detached Shading:Fixed,0.20,0.20,0.00, N/A
ShadingProperty Reflectance,Mir-TERRACE0_1_1,Detached Shading:Fixed,0.20,0.20,0.00, N/A
ShadingProperty Reflectance,TERRACE0_1_2,Detached Shading:Fixed,0.20,0.20,0.00, N/A
ShadingProperty Reflectance,Mir-TERRACE0_1_2,Detached Shading:Fixed,0.20,0.20,0.00, N/A
ShadingProperty Reflectance,TERRACE0_1_3,Detached Shading:Fixed,0.20,0.20,0.00, N/A
ShadingProperty Reflectance,Mir-TERRACE0_1_3,Detached Shading:Fixed,0.20,0.20,0.00, N/A
ShadingProperty Reflectance,TERRACE0_1_4,Detached Shading:Fixed,0.20,0.20,0.00, N/A
ShadingProperty Reflectance,Mir-TERRACE0_1_4,Detached Shading:Fixed,0.20,0.20,0.00, N/A
ShadingProperty Reflectance,TERRACE0_1_5,Detached Shading:Fixed,0.20,0.20,0.00, N/A
ShadingProperty Reflectance,Mir-TERRACE0_1_5,Detached Shading:Fixed,0.20,0.20,0.00, N/A
ShadingProperty Reflectance,TERRACE0_1_6,Detached Shading:Fixed,0.20,0.20,0.00, N/A
ShadingProperty Reflectance,Mir-TERRACE0_1_6,Detached Shading:Fixed,0.20,0.20,0.00, N/A
ShadingProperty Reflectance,TERRACEFLOOR0_1,Detached Shading:Fixed,0.20,0.20,0.00, N/A
ShadingProperty Reflectance,Mir-TERRACEFLOOR0_1,Detached Shading:Fixed,0.20,0.20,0.00, N/A
ShadingProperty Reflectance,TERRACE0_2_1,Detached Shading:Fixed,0.20,0.20,0.00, N/A
ShadingProperty Reflectance,Mir-TERRACE0_2_1,Detached Shading:Fixed,0.20,0.20,0.00, N/A
ShadingProperty Reflectance,TERRACE0_2_2,Detached Shading:Fixed,0.20,0.20,0.00, N/A
ShadingProperty Reflectance,Mir-TERRACE0_2_2,Detached Shading:Fixed,0.20,0.20,0.00, N/A
ShadingProperty Reflectance,TERRACE0_2_3,Detached Shading:Fixed,0.20,0.20,0.00, N/A
ShadingProperty Reflectance,Mir-TERRACE0_2_3,Detached Shading:Fixed,0.20,0.20,0.00, N/A
ShadingProperty Reflectance,TERRACE0_2_4,Detached Shading:Fixed,0.20,0.20,0.00, N/A
ShadingProperty Reflectance,Mir-TERRACE0_2_4,Detached Shading:Fixed,0.20,0.20,0.00, N/A
ShadingProperty Reflectance,TERRACE0_2_5,Detached Shading:Fixed,0.20,0.20,0.00, N/A
ShadingProperty Reflectance,Mir-TERRACE0_2_5,Detached Shading:Fixed,0.20,0.20,0.00, N/A
ShadingProperty Reflectance,TERRACEFLOOR0_2,Detached Shading:Fixed,0.20,0.20,0.00, N/A
ShadingProperty Reflectance,Mir-TERRACEFLOOR0_2,Detached Shading:Fixed,0.20,0.20,0.00, N/A
ShadingProperty Reflectance,TERRACE1_0_1,Detached Shading:Fixed,0.20,0.20,0.00, N/A
ShadingProperty Reflectance,Mir-TERRACE1_0_1,Detached Shading:Fixed,0.20,0.20,0.00, N/A
ShadingProperty Reflectance,TERRACE1_0_2,Detached Shading:Fixed,0.20,0.20,0.00, N/A
ShadingProperty Reflectance,Mir-TERRACE1_0_2,Detached Shading:Fixed,0.20,0.20,0.00, N/A
ShadingProperty Reflectance,TERRACE1_0_3,Detached Shading:Fixed,0.20,0.20,0.00, N/A
ShadingProperty Reflectance,Mir-TERRACE1_0_3,Detached Shading:Fixed,0.20,0.20,0.00, N/A
ShadingProperty Reflectance,TERRACE1_0_4,Detached Shading:Fixed,0.20,0.20,0.00, N/A
ShadingProperty Reflectance,Mir-TERRACE1_0_4,Detached Shading:Fixed,0.20,0.20,0.00, N/A
ShadingProperty Reflectance,TERRACE1_0_5,Detached Shading:Fixed,0.20,0.20,0.00, N/A
ShadingProperty Reflectance,Mir-TERRACE1_0_5,Detached Shading:Fixed,0.20,0.20,0.00, N/A
ShadingProperty Reflectance,TERRACE1_0_6,Detached Shading:Fixed,0.20,0.20,0.00, N/A
ShadingProperty Reflectance,Mir-TERRACE1_0_6,Detached Shading:Fixed,0.20,0.20,0.00, N/A
ShadingProperty Reflectance,TERRACE1_0_7,Detached Shading:Fixed,0.20,0.20,0.00, N/A
ShadingProperty Reflectance,Mir-TERRACE1_0_7,Detached Shading:Fixed,0.20,0.20,0.00, N/A
ShadingProperty Reflectance,TERRACE1_0_8,Detached Shading:Fixed,0.20,0.20,0.00, N/A
ShadingProperty Reflectance,Mir-TERRACE1_0_8,Detached Shading:Fixed,0.20,0.20,0.00, N/A
ShadingProperty Reflectance,TERRACE1_0_9,Detached Shading:Fixed,0.20,0.20,0.00, N/A
ShadingProperty Reflectance,Mir-TERRACE1_0_9,Detached Shading:Fixed,0.20,0.20,0.00, N/A
ShadingProperty Reflectance,TERRACE1_0_10,Detached Shading:Fixed,0.20,0.20,0.00, N/A
ShadingProperty Reflectance,Mir-TERRACE1_0_10,Detached Shading:Fixed,0.20,0.20,0.00, N/A
ShadingProperty Reflectance,TERRACEFLOOR1_0,Detached Shading:Fixed,0.20,0.20,0.00, N/A
ShadingProperty Reflectance,Mir-TERRACEFLOOR1_0,Detached Shading:Fixed,0.20,0.20,0.00, N/A
ShadingProperty Reflectance,TERRACE1_1_1,Detached Shading:Fixed,0.20,0.20,0.00, N/A
ShadingProperty Reflectance,Mir-TERRACE1_1_1,Detached Shading:Fixed,0.20,0.20,0.00, N/A
ShadingProperty Reflectance,TERRACE1_1_2,Detached Shading:Fixed,0.20,0.20,0.00, N/A
ShadingProperty Reflectance,Mir-TERRACE1_1_2,Detached Shading:Fixed,0.20,0.20,0.00, N/A
ShadingProperty Reflectance,TERRACE1_1_3,Detached Shading:Fixed,0.20,0.20,0.00, N/A
ShadingProperty Reflectance,Mir-TERRACE1_1_3,Detached Shading:Fixed,0.20,0.20,0.00, N/A
ShadingProperty Reflectance,TERRACE1_1_4,Detached Shading:Fixed,0.20,0.20,0.00, N/A
ShadingProperty Reflectance,Mir-TERRACE1_1_4,Detached Shading:Fixed,0.20,0.20,0.00, N/A
ShadingProperty Reflectance,TERRACE1_1_5,Detached Shading:Fixed,0.20,0.20,0.00, N/A
ShadingProperty Reflectance,Mir-TERRACE1_1_5,Detached Shading:Fixed,0.20,0.20,0.00, N/A
ShadingProperty Reflectance,TERRACE1_1_6,Detached Shading:Fixed,0.20,0.20,0.00, N/A
ShadingProperty Reflectance,Mir-TERRACE1_1_6,Detached Shading:Fixed,0.20,0.20,0.00, N/A
ShadingProperty Reflectance,TERRACE1_1_7,Detached Shading:Fixed,0.20,0.20,0.00, N/A
ShadingProperty Reflectance,Mir-TERRACE1_1_7,Detached Shading:Fixed,0.20,0.20,0.00, N/A
ShadingProperty Reflectance,TERRACE1_1_8,Detached Shading:Fixed,0.20,0.20,0.00, N/A
ShadingProperty Reflectance,Mir-TERRACE1_1_8,Detached Shading:Fixed,0.20,0.20,0.00, N/A
ShadingProperty Reflectance,TERRACE1_1_9,Detached Shading:Fixed,0.20,0.20,0.00, N/A
ShadingProperty Reflectance,Mir-TERRACE1_1_9,Detached Shading:Fixed,0.20,0.20,0.00, N/A
ShadingProperty Reflectance,TERRACE1_1_10,Detached Shading:Fixed,0.20,0.20,0.00, N/A
ShadingProperty Reflectance,Mir-TERRACE1_1_10,Detached Shading:Fixed,0.20,0.20,0.00, N/A
ShadingProperty Reflectance,TERRACEFLOOR1_1,Detached Shading:Fixed,0.20,0.20,0.00, N/A
ShadingProperty Reflectance,Mir-TERRACEFLOOR1_1,Detached Shading:Fixed,0.20,0.20,0.00, N/A
ShadingProperty Reflectance,TERRACE2_0_1,Detached Shading:Fixed,0.20,0.20,0.00, N/A
ShadingProperty Reflectance,Mir-TERRACE2_0_1,Detached Shading:Fixed,0.20,0.20,0.00, N/A
ShadingProperty Reflectance,TERRACE2_0_2,Detached Shading:Fixed,0.20,0.20,0.00, N/A
ShadingProperty Reflectance,Mir-TERRACE2_0_2,Detached Shading:Fixed,0.20,0.20,0.00, N/A
ShadingProperty Reflectance,TERRACE2_0_3,Detached Shading:Fixed,0.20,0.20,0.00, N/A
ShadingProperty Reflectance,Mir-TERRACE2_0_3,Detached Shading:Fixed,0.20,0.20,0.00, N/A
ShadingProperty Reflectance,TERRACE2_0_4,Detached Shading:Fixed,0.20,0.20,0.00, N/A
ShadingProperty Reflectance,Mir-TERRACE2_0_4,Detached Shading:Fixed,0.20,0.20,0.00, N/A
ShadingProperty Reflectance,TERRACEFLOOR2_0,Detached Shading:Fixed,0.20,0.20,0.00, N/A
ShadingProperty Reflectance,Mir-TERRACEFLOOR2_0,Detached Shading:Fixed,0.20,0.20,0.00, N/A
ShadingProperty Reflectance,TERRACE2_1_1,Detached Shading:Fixed,0.20,0.20,0.00, N/A
ShadingProperty Reflectance,Mir-TERRACE2_1_1,Detached Shading:Fixed,0.20,0.20,0.00, N/A
ShadingProperty Reflectance,TERRACE2_1_2,Detached Shading:Fixed,0.20,0.20,0.00, N/A
ShadingProperty Reflectance,Mir-TERRACE2_1_2,Detached Shading:Fixed,0.20,0.20,0.00, N/A
ShadingProperty Reflectance,TERRACE2_1_3,Detached Shading:Fixed,0.20,0.20,0.00, N/A
ShadingProperty Reflectance,Mir-TERRACE2_1_3,Detached Shading:Fixed,0.20,0.20,0.00, N/A
ShadingProperty Reflectance,TERRACE2_1_4,Detached Shading:Fixed,0.20,0.20,0.00, N/A
ShadingProperty Reflectance,Mir-TERRACE2_1_4,Detached Shading:Fixed,0.20,0.20,0.00, N/A
ShadingProperty Reflectance,TERRACEFLOOR2_1,Detached Shading:Fixed,0.20,0.20,0.00, N/A
ShadingProperty Reflectance,Mir-TERRACEFLOOR2_1,Detached Shading:Fixed,0.20,0.20,0.00, N/A
ShadingProperty Reflectance,TERRACE2_2_1,Detached Shading:Fixed,0.20,0.20,0.00, N/A
ShadingProperty Reflectance,Mir-TERRACE2_2_1,Detached Shading:Fixed,0.20,0.20,0.00, N/A
ShadingProperty Reflectance,TERRACE2_2_2,Detached Shading:Fixed,0.20,0.20,0.00, N/A
ShadingProperty Reflectance,Mir-TERRACE2_2_2,Detached Shading:Fixed,0.20,0.20,0.00, N/A
ShadingProperty Reflectance,TERRACE2_2_3,Detached Shading:Fixed,0.20,0.20,0.00, N/A
ShadingProperty Reflectance,Mir-TERRACE2_2_3,Detached Shading:Fixed,0.20,0.20,0.00, N/A
ShadingProperty Reflectance,TERRACE2_2_4,Detached Shading:Fixed,0.20,0.20,0.00, N/A
ShadingProperty Reflectance,Mir-TERRACE2_2_4,Detached Shading:Fixed,0.20,0.20,0.00, N/A
ShadingProperty Reflectance,TERRACEFLOOR2_2,Detached Shading:Fixed,0.20,0.20,0.00, N/A
ShadingProperty Reflectance,Mir-TERRACEFLOOR2_2,Detached Shading:Fixed,0.20,0.20,0.00, N/A
ShadingProperty Reflectance,TERRACE3_0_1,Detached Shading:Fixed,0.20,0.20,0.00, N/A
ShadingProperty Reflectance,Mir-TERRACE3_0_1,Detached Shading:Fixed,0.20,0.20,0.00, N/A
ShadingProperty Reflectance,TERRACE3_0_2,Detached Shading:Fixed,0.20,0.20,0.00, N/A
ShadingProperty Reflectance,Mir-TERRACE3_0_2,Detached Shading:Fixed,0.20,0.20,0.00, N/A
ShadingProperty Reflectance,TERRACE3_0_3,Detached Shading:Fixed,0.20,0.20,0.00, N/A
ShadingProperty Reflectance,Mir-TERRACE3_0_3,Detached Shading:Fixed,0.20,0.20,0.00, N/A
ShadingProperty Reflectance,TERRACE3_0_4,Detached Shading:Fixed,0.20,0.20,0.00, N/A
ShadingProperty Reflectance,Mir-TERRACE3_0_4,Detached Shading:Fixed,0.20,0.20,0.00, N/A
ShadingProperty Reflectance,TERRACEFLOOR3_0,Detached Shading:Fixed,0.20,0.20,0.00, N/A
ShadingProperty Reflectance,Mir-TERRACEFLOOR3_0,Detached Shading:Fixed,0.20,0.20,0.00, N/A
ShadingProperty Reflectance,TERRACE3_1_1,Detached Shading:Fixed,0.20,0.20,0.00, N/A
ShadingProperty Reflectance,Mir-TERRACE3_1_1,Detached Shading:Fixed,0.20,0.20,0.00, N/A
ShadingProperty Reflectance,TERRACE3_1_2,Detached Shading:Fixed,0.20,0.20,0.00, N/A
ShadingProperty Reflectance,Mir-TERRACE3_1_2,Detached Shading:Fixed,0.20,0.20,0.00, N/A
ShadingProperty Reflectance,TERRACE3_1_3,Detached Shading:Fixed,0.20,0.20,0.00, N/A
ShadingProperty Reflectance,Mir-TERRACE3_1_3,Detached Shading:Fixed,0.20,0.20,0.00, N/A
ShadingProperty Reflectance,TERRACE3_1_4,Detached Shading:Fixed,0.20,0.20,0.00, N/A
ShadingProperty Reflectance,Mir-TERRACE3_1_4,Detached Shading:Fixed,0.20,0.20,0.00, N/A
ShadingProperty Reflectance,TERRACEFLOOR3_1,Detached Shading:Fixed,0.20,0.20,0.00, N/A
ShadingProperty Reflectance,Mir-TERRACEFLOOR3_1,Detached Shading:Fixed,0.20,0.20,0.00, N/A
ShadingProperty Reflectance,TERRACE3_2_1,Detached Shading:Fixed,0.20,0.20,0.00, N/A
ShadingProperty Reflectance,Mir-TERRACE3_2_1,Detached Shading:Fixed,0.20,0.20,0.00, N/A
ShadingProperty Reflectance,TERRACE3_2_2,Detached Shading:Fixed,0.20,0.20,0.00, N/A
ShadingProperty Reflectance,Mir-TERRACE3_2_2,Detached Shading:Fixed,0.20,0.20,0.00, N/A
ShadingProperty Reflectance,TERRACE3_2_3,Detached Shading:Fixed,0.20,0.20,0.00, N/A
ShadingProperty Reflectance,Mir-TERRACE3_2_3,Detached Shading:Fixed,0.20,0.20,0.00, N/A
ShadingProperty Reflectance,TERRACE3_2_4,Detached Shading:Fixed,0.20,0.20,0.00, N/A
ShadingProperty Reflectance,Mir-TERRACE3_2_4,Detached Shading:Fixed,0.20,0.20,0.00, N/A
ShadingProperty Reflectance,TERRACEFLOOR3_2,Detached Shading:Fixed,0.20,0.20,0.00, N/A
ShadingProperty Reflectance,Mir-TERRACEFLOOR3_2,Detached Shading:Fixed,0.20,0.20,0.00, N/A
ShadingProperty Reflectance,TERRACE4_0_1,Detached Shading:Fixed,0.20,0.20,0.00, N/A
ShadingProperty Reflectance,Mir-TERRACE4_0_1,Detached Shading:Fixed,0.20,0.20,0.00, N/A
ShadingProperty Reflectance,TERRACE4_0_2,Detached Shading:Fixed,0.20,0.20,0.00, N/A
ShadingProperty Reflectance,Mir-TERRACE4_0_2,Detached Shading:Fixed,0.20,0.20,0.00, N/A
ShadingProperty Reflectance,TERRACE4_0_3,Detached Shading:Fixed,0.20,0.20,0.00, N/A
ShadingProperty Reflectance,Mir-TERRACE4_0_3,Detached Shading:Fixed,0.20,0.20,0.00, N/A
ShadingProperty Reflectance,TERRACE4_0_4,Detached Shading:Fixed,0.20,0.20,0.00, N/A
ShadingProperty Reflectance,Mir-TERRACE4_0_4,Detached Shading:Fixed,0.20,0.20,0.00, N/A
ShadingProperty Reflectance,TERRACEFLOOR4_0,Detached Shading:Fixed,0.20,0.20,0.00, N/A
ShadingProperty Reflectance,Mir-TERRACEFLOOR4_0,Detached Shading:Fixed,0.20,0.20,0.00, N/A
ShadingProperty Reflectance,TERRACE4_1_1,Detached Shading:Fixed,0.20,0.20,0.00, N/A
ShadingProperty Reflectance,Mir-TERRACE4_1_1,Detached Shading:Fixed,0.20,0.20,0.00, N/A
ShadingProperty Reflectance,TERRACE4_1_2,Detached Shading:Fixed,0.20,0.20,0.00, N/A
ShadingProperty Reflectance,Mir-TERRACE4_1_2,Detached Shading:Fixed,0.20,0.20,0.00, N/A
ShadingProperty Reflectance,TERRACE4_1_3,Detached Shading:Fixed,0.20,0.20,0.00, N/A
ShadingProperty Reflectance,Mir-TERRACE4_1_3,Detached Shading:Fixed,0.20,0.20,0.00, N/A
ShadingProperty Reflectance,TERRACE4_1_4,Detached Shading:Fixed,0.20,0.20,0.00, N/A
ShadingProperty Reflectance,Mir-TERRACE4_1_4,Detached Shading:Fixed,0.20,0.20,0.00, N/A
ShadingProperty Reflectance,TERRACEFLOOR4_1,Detached Shading:Fixed,0.20,0.20,0.00, N/A
ShadingProperty Reflectance,Mir-TERRACEFLOOR4_1,Detached Shading:Fixed,0.20,0.20,0.00, N/A
ShadingProperty Reflectance,TERRACE4_2_1,Detached Shading:Fixed,0.20,0.20,0.00, N/A
ShadingProperty Reflectance,Mir-TERRACE4_2_1,Detached Shading:Fixed,0.20,0.20,0.00, N/A
ShadingProperty Reflectance,TERRACE4_2_2,Detached Shading:Fixed,0.20,0.20,0.00, N/A
ShadingProperty Reflectance,Mir-TERRACE4_2_2,Detached Shading:Fixed,0.20,0.20,0.00, N/A
ShadingProperty Reflectance,TERRACE4_2_3,Detached Shading:Fixed,0.20,0.20,0.00, N/A
ShadingProperty Reflectance,Mir-TERRACE4_2_3,Detached Shading:Fixed,0.20,0.20,0.00, N/A
ShadingProperty Reflectance,TERRACE4_2_4,Detached Shading:Fixed,0.20,0.20,0.00, N/A
ShadingProperty Reflectance,Mir-TERRACE4_2_4,Detached Shading:Fixed,0.20,0.20,0.00, N/A
ShadingProperty Reflectance,TERRACEFLOOR4_2,Detached Shading:Fixed,0.20,0.20,0.00, N/A
ShadingProperty Reflectance,Mir-TERRACEFLOOR4_2,Detached Shading:Fixed,0.20,0.20,0.00, N/A
ShadingProperty Reflectance,TERRACE5_0_1,Detached Shading:Fixed,0.20,0.20,0.00, N/A
ShadingProperty Reflectance,Mir-TERRACE5_0_1,Detached Shading:Fixed,0.20,0.20,0.00, N/A
ShadingProperty Reflectance,TERRACE5_0_2,Detached Shading:Fixed,0.20,0.20,0.00, N/A
ShadingProperty Reflectance,Mir-TERRACE5_0_2,Detached Shading:Fixed,0.20,0.20,0.00, N/A
ShadingProperty Reflectance,TERRACE5_0_3,Detached Shading:Fixed,0.20,0.20,0.00, N/A
ShadingProperty Reflectance,Mir-TERRACE5_0_3,Detached Shading:Fixed,0.20,0.20,0.00, N/A
ShadingProperty Reflectance,TERRACE5_0_4,Detached Shading:Fixed,0.20,0.20,0.00, N/A
ShadingProperty Reflectance,Mir-TERRACE5_0_4,Detached Shading:Fixed,0.20,0.20,0.00, N/A
ShadingProperty Reflectance,TERRACEFLOOR5_0,Detached Shading:Fixed,0.20,0.20,0.00, N/A
ShadingProperty Reflectance,Mir-TERRACEFLOOR5_0,Detached Shading:Fixed,0.20,0.20,0.00, N/A
ShadingProperty Reflectance,TERRACE5_1_1,Detached Shading:Fixed,0.20,0.20,0.00, N/A
ShadingProperty Reflectance,Mir-TERRACE5_1_1,Detached Shading:Fixed,0.20,0.20,0.00, N/A
ShadingProperty Reflectance,TERRACE5_1_2,Detached Shading:Fixed,0.20,0.20,0.00, N/A
ShadingProperty Reflectance,Mir-TERRACE5_1_2,Detached Shading:Fixed,0.20,0.20,0.00, N/A
ShadingProperty Reflectance,TERRACE5_1_3,Detached Shading:Fixed,0.20,0.20,0.00, N/A
ShadingProperty Reflectance,Mir-TERRACE5_1_3,Detached Shading:Fixed,0.20,0.20,0.00, N/A
ShadingProperty Reflectance,TERRACE5_1_4,Detached Shading:Fixed,0.20,0.20,0.00, N/A
ShadingProperty Reflectance,Mir-TERRACE5_1_4,Detached Shading:Fixed,0.20,0.20,0.00, N/A
ShadingProperty Reflectance,TERRACEFLOOR5_1,Detached Shading:Fixed,0.20,0.20,0.00, N/A
ShadingProperty Reflectance,Mir-TERRACEFLOOR5_1,Detached Shading:Fixed,0.20,0.20,0.00, N/A
ShadingProperty Reflectance,TERRACE5_2_1,Detached Shading:Fixed,0.20,0.20,0.00, N/A
ShadingProperty Reflectance,Mir-TERRACE5_2_1,Detached Shading:Fixed,0.20,0.20,0.00, N/A
ShadingProperty Reflectance,TERRACE5_2_2,Detached Shading:Fixed,0.20,0.20,0.00, N/A
ShadingProperty Reflectance,Mir-TERRACE5_2_2,Detached Shading:Fixed,0.20,0.20,0.00, N/A
ShadingProperty Reflectance,TERRACE5_2_3,Detached Shading:Fixed,0.20,0.20,0.00, N/A
ShadingProperty Reflectance,Mir-TERRACE5_2_3,Detached Shading:Fixed,0.20,0.20,0.00, N/A
ShadingProperty Reflectance,TERRACE5_2_4,Detached Shading:Fixed,0.20,0.20,0.00, N/A
ShadingProperty Reflectance,Mir-TERRACE5_2_4,Detached Shading:Fixed,0.20,0.20,0.00, N/A
ShadingProperty Reflectance,TERRACEFLOOR5_2,Detached Shading:Fixed,0.20,0.20,0.00, N/A
ShadingProperty Reflectance,Mir-TERRACEFLOOR5_2,Detached Shading:Fixed,0.20,0.20,0.00, N/A
ShadingProperty Reflectance,TERRACE6_0_1,Detached Shading:Fixed,0.20,0.20,0.00, N/A
ShadingProperty Reflectance,Mir-TERRACE6_0_1,Detached Shading:Fixed,0.20,0.20,0.00, N/A
ShadingProperty Reflectance,TERRACE6_0_2,Detached Shading:Fixed,0.20,0.20,0.00, N/A
ShadingProperty Reflectance,Mir-TERRACE6_0_2,Detached Shading:Fixed,0.20,0.20,0.00, N/A
ShadingProperty Reflectance,TERRACE6_0_3,Detached Shading:Fixed,0.20,0.20,0.00, N/A
ShadingProperty Reflectance,Mir-TERRACE6_0_3,Detached Shading:Fixed,0.20,0.20,0.00, N/A
ShadingProperty Reflectance,TERRACE6_0_4,Detached Shading:Fixed,0.20,0.20,0.00, N/A
ShadingProperty Reflectance,Mir-TERRACE6_0_4,Detached Shading:Fixed,0.20,0.20,0.00, N/A
ShadingProperty Reflectance,TERRACEFLOOR6_0,Detached Shading:Fixed,0.20,0.20,0.00, N/A
ShadingProperty Reflectance,Mir-TERRACEFLOOR6_0,Detached Shading:Fixed,0.20,0.20,0.00, N/A
ShadingProperty Reflectance,TERRACE6_1_1,Detached Shading:Fixed,0.20,0.20,0.00, N/A
ShadingProperty Reflectance,Mir-TERRACE6_1_1,Detached Shading:Fixed,0.20,0.20,0.00, N/A
ShadingProperty Reflectance,TERRACE6_1_2,Detached Shading:Fixed,0.20,0.20,0.00, N/A
ShadingProperty Reflectance,Mir-TERRACE6_1_2,Detached Shading:Fixed,0.20,0.20,0.00, N/A
ShadingProperty Reflectance,TERRACE6_1_3,Detached Shading:Fixed,0.20,0.20,0.00, N/A
ShadingProperty Reflectance,Mir-TERRACE6_1_3,Detached Shading:Fixed,0.20,0.20,0.00, N/A
ShadingProperty Reflectance,TERRACE6_1_4,Detached Shading:Fixed,0.20,0.20,0.00, N/A
ShadingProperty Reflectance,Mir-TERRACE6_1_4,Detached Shading:Fixed,0.20,0.20,0.00, N/A
ShadingProperty Reflectance,TERRACEFLOOR6_1,Detached Shading:Fixed,0.20,0.20,0.00, N/A
ShadingProperty Reflectance,Mir-TERRACEFLOOR6_1,Detached Shading:Fixed,0.20,0.20,0.00, N/A
ShadingProperty Reflectance,TERRACE6_2_1,Detached Shading:Fixed,0.20,0.20,0.00, N/A
ShadingProperty Reflectance,Mir-TERRACE6_2_1,Detached Shading:Fixed,0.20,0.20,0.00, N/A
ShadingProperty Reflectance,TERRACE6_2_2,Detached Shading:Fixed,0.20,0.20,0.00, N/A
ShadingProperty Reflectance,Mir-TERRACE6_2_2,Detached Shading:Fixed,0.20,0.20,0.00, N/A
ShadingProperty Reflectance,TERRACE6_2_3,Detached Shading:Fixed,0.20,0.20,0.00, N/A
ShadingProperty Reflectance,Mir-TERRACE6_2_3,Detached Shading:Fixed,0.20,0.20,0.00, N/A
ShadingProperty Reflectance,TERRACE6_2_4,Detached Shading:Fixed,0.20,0.20,0.00, N/A
ShadingProperty Reflectance,Mir-TERRACE6_2_4,Detached Shading:Fixed,0.20,0.20,0.00, N/A
ShadingProperty Reflectance,TERRACEFLOOR6_2,Detached Shading:Fixed,0.20,0.20,0.00, N/A
ShadingProperty Reflectance,Mir-TERRACEFLOOR6_2,Detached Shading:Fixed,0.20,0.20,0.00, N/A
ShadingProperty Reflectance,TERRACE7_0_1,Detached Shading:Fixed,0.20,0.20,0.00, N/A
ShadingProperty Reflectance,Mir-TERRACE7_0_1,Detached Shading:Fixed,0.20,0.20,0.00, N/A
ShadingProperty Reflectance,TERRACE7_0_2,Detached Shading:Fixed,0.20,0.20,0.00, N/A
ShadingProperty Reflectance,Mir-TERRACE7_0_2,Detached Shading:Fixed,0.20,0.20,0.00, N/A
ShadingProperty Reflectance,TERRACE7_0_3,Detached Shading:Fixed,0.20,0.20,0.00, N/A
ShadingProperty Reflectance,Mir-TERRACE7_0_3,Detached Shading:Fixed,0.20,0.20,0.00, N/A
ShadingProperty Reflectance,TERRACE7_0_4,Detached Shading:Fixed,0.20,0.20,0.00, N/A
ShadingProperty Reflectance,Mir-TERRACE7_0_4,Detached Shading:Fixed,0.20,0.20,0.00, N/A
ShadingProperty Reflectance,TERRACEFLOOR7_0,Detached Shading:Fixed,0.20,0.20,0.00, N/A
ShadingProperty Reflectance,Mir-TERRACEFLOOR7_0,Detached Shading:Fixed,0.20,0.20,0.00, N/A
ShadingProperty Reflectance,TERRACE7_1_1,Detached Shading:Fixed,0.20,0.20,0.00, N/A
ShadingProperty Reflectance,Mir-TERRACE7_1_1,Detached Shading:Fixed,0.20,0.20,0.00, N/A
ShadingProperty Reflectance,TERRACE7_1_2,Detached Shading:Fixed,0.20,0.20,0.00, N/A
ShadingProperty Reflectance,Mir-TERRACE7_1_2,Detached Shading:Fixed,0.20,0.20,0.00, N/A
ShadingProperty Reflectance,TERRACE7_1_3,Detached Shading:Fixed,0.20,0.20,0.00, N/A
ShadingProperty Reflectance,Mir-TERRACE7_1_3,Detached Shading:Fixed,0.20,0.20,0.00, N/A
ShadingProperty Reflectance,TERRACE7_1_4,Detached Shading:Fixed,0.20,0.20,0.00, N/A
ShadingProperty Reflectance,Mir-TERRACE7_1_4,Detached Shading:Fixed,0.20,0.20,0.00, N/A
ShadingProperty Reflectance,TERRACEFLOOR7_1,Detached Shading:Fixed,0.20,0.20,0.00, N/A
ShadingProperty Reflectance,Mir-TERRACEFLOOR7_1,Detached Shading:Fixed,0.20,0.20,0.00, N/A
ShadingProperty Reflectance,TERRACE7_2_1,Detached Shading:Fixed,0.20,0.20,0.00, N/A
ShadingProperty Reflectance,Mir-TERRACE7_2_1,Detached Shading:Fixed,0.20,0.20,0.00, N/A
ShadingProperty Reflectance,TERRACE7_2_2,Detached Shading:Fixed,0.20,0.20,0.00, N/A
ShadingProperty Reflectance,Mir-TERRACE7_2_2,Detached Shading:Fixed,0.20,0.20,0.00, N/A
ShadingProperty Reflectance,TERRACE7_2_3,Detached Shading:Fixed,0.20,0.20,0.00, N/A
ShadingProperty Reflectance,Mir-TERRACE7_2_3,Detached Shading:Fixed,0.20,0.20,0.00, N/A
ShadingProperty Reflectance,TERRACE7_2_4,Detached Shading:Fixed,0.20,0.20,0.00, N/A
ShadingProperty Reflectance,Mir-TERRACE7_2_4,Detached Shading:Fixed,0.20,0.20,0.00, N/A
ShadingProperty Reflectance,TERRACEFLOOR7_2,Detached Shading:Fixed,0.20,0.20,0.00, N/A
ShadingProperty Reflectance,Mir-TERRACEFLOOR7_2,Detached Shading:Fixed,0.20,0.20,0.00, N/A
ShadingProperty Reflectance,L_BLOCK0_1,Detached Shading:Fixed,0.20,0.20,0.00, N/A
ShadingProperty Reflectance,Mir-L_BLOCK0_1,Detached Shading:Fixed,0.20,0.20,0.00, N/A
ShadingProperty Reflectance,L_BLOCK0_2,Detached Shading:Fixed,0.20,0.20,0.00, N/A
ShadingProperty Reflectance,Mir-L_BLOCK0_2,Detached Shading:Fixed,0.20,0.20,0.00, N/A
ShadingProperty Reflectance,L_BLOCK0_3,Detached Shading:Fixed,0.20,0.20,0.00, N/A
ShadingProperty Reflectance,Mir-L_BLOCK0_3,Detached Shading:Fixed,0.20,0.20,0.00, N/A
ShadingProperty Reflectance,L_BLOCK0_4,Detached Shading:Fixed,0.20,0.20,0.00, N/A
ShadingProperty Reflectance,Mir-L_BLOCK0_4,Detached Shading:Fixed,0.20,0.20,0.00, N/A
ShadingProperty Reflectance,L_BLOCK0_5,Detached Shading:Fixed,0.20,0.20,0.00, N/A
ShadingProperty Reflectance,Mir-L_BLOCK0_5,Detached Shading:Fixed,0.20,0.20,0.00, N/A
ShadingProperty Reflectance,SHADING0,Detached Shading:Fixed,0.20,0.20,0.00, N/A
ShadingProperty Reflectance,Mir-SHADING0,Detached Shading:Fixed,0.20,0.20,0.00, N/A
ShadingProperty Reflectance,L_BLOCK1_1,Detached Shading:Fixed,0.20,0.20,0.00, N/A
ShadingProperty Reflectance,Mir-L_BLOCK1_1,Detached Shading:Fixed,0.20,0.20,0.00, N/A
ShadingProperty Reflectance,L_BLOCK1_2,Detached Shading:Fixed,0.20,0.20,0.00, N/A
ShadingProperty Reflectance,Mir-L_BLOCK1_2,Detached Shading:Fixed,0.20,0.20,0.00, N/A
ShadingProperty Reflectance,L_BLOCK1_3,Detached Shading:Fixed,0.20,0.20,0.00, N/A
ShadingProperty Reflectance,Mir-L_BLOCK1_3,Detached Shading:Fixed,0.20,0.20,0.00, N/A
ShadingProperty Reflectance,L_BLOCK1_4,Detached Shading:Fixed,0.20,0.20,0.00, N/A
ShadingProperty Reflectance,Mir-L_BLOCK1_4,Detached Shading:Fixed,0.20,0.20,0.00, N/A
ShadingProperty Reflectance,L_BLOCK1_5,Detached Shading:Fixed,0.20,0.20,0.00, N/A
ShadingProperty Reflectance,Mir-L_BLOCK1_5,Detached Shading:Fixed,0.20,0.20,0.00, N/A
ShadingProperty Reflectance,L_BLOCK1_6,Detached Shading:Fixed,0.20,0.20,0.00, N/A
ShadingProperty Reflectance,Mir-L_BLOCK1_6,Detached Shading:Fixed,0.20,0.20,0.00, N/A
ShadingProperty Reflectance,L_BLOCK1_7,Detached Shading:Fixed,0.20,0.20,0.00, N/A
ShadingProperty Reflectance,Mir-L_BLOCK1_7,Detached Shading:Fixed,0.20,0.20,0.00, N/A
ShadingProperty Reflectance,L_BLOCK1_8,Detached Shading:Fixed,0.20,0.20,0.00, N/A
ShadingProperty Reflectance,Mir-L_BLOCK1_8,Detached Shading:Fixed,0.20,0.20,0.00, N/A
ShadingProperty Reflectance,L_BLOCK1_9,Detached Shading:Fixed,0.20,0.20,0.00, N/A
ShadingProperty Reflectance,Mir-L_BLOCK1_9,Detached Shading:Fixed,0.20,0.20,0.00, N/A
ShadingProperty Reflectance,L_BLOCK1_10,Detached Shading:Fixed,0.20,0.20,0.00, N/A
ShadingProperty Reflectance,Mir-L_BLOCK1_10,Detached Shading:Fixed,0.20,0.20,0.00, N/A
ShadingProperty Reflectance,L_BLOCK1_11,Detached Shading:Fixed,0.20,0.20,0.00, N/A
ShadingProperty Reflectance,Mir-L_BLOCK1_11,Detached Shading:Fixed,0.20,0.20,0.00, N/A
ShadingProperty Reflectance,L_BLOCK1_12,Detached Shading:Fixed,0.20,0.20,0.00, N/A
ShadingProperty Reflectance,Mir-L_BLOCK1_12,Detached Shading:Fixed,0.20,0.20,0.00, N/A
ShadingProperty Reflectance,L_BLOCK1_13,Detached Shading:Fixed,0.20,0.20,0.00, N/A
ShadingProperty Reflectance,Mir-L_BLOCK1_13,Detached Shading:Fixed,0.20,0.20,0.00, N/A
ShadingProperty Reflectance,L_BLOCK1_14,Detached Shading:Fixed,0.20,0.20,0.00, N/A
ShadingProperty Reflectance,Mir-L_BLOCK1_14,Detached Shading:Fixed,0.20,0.20,0.00, N/A
ShadingProperty Reflectance,L_BLOCK1_15,Detached Shading:Fixed,0.20,0.20,0.00, N/A
ShadingProperty Reflectance,Mir-L_BLOCK1_15,Detached Shading:Fixed,0.20,0.20,0.00, N/A
ShadingProperty Reflectance,L_BLOCK1_16,Detached Shading:Fixed,0.20,0.20,0.00, N/A
ShadingProperty Reflectance,Mir-L_BLOCK1_16,Detached Shading:Fixed,0.20,0.20,0.00, N/A
ShadingProperty Reflectance,L_BLOCK1_17,Detached Shading:Fixed,0.20,0.20,0.00, N/A
ShadingProperty Reflectance,Mir-L_BLOCK1_17,Detached Shading:Fixed,0.20,0.20,0.00, N/A
ShadingProperty Reflectance,L_BLOCK1_18,Detached Shading:Fixed,0.20,0.20,0.00, N/A
ShadingProperty Reflectance,Mir-L_BLOCK1_18,Detached Shading:Fixed,0.20,0.20,0.00, N/A
ShadingProperty Reflectance,L_BLOCK1_19,Detached Shading:Fixed,0.20,0.20,0.00, N/A
ShadingProperty Reflectance,Mir-L_BLOCK1_19,Detached Shading:Fixed,0.20,0.20,0.00, N/A
ShadingProperty Reflectance,SHADING1,Detached Shading:Fixed,0.20,0.20,0.00, N/A
ShadingProperty Reflectance,Mir-SHADING1,Detached Shading:Fixed,0.20,0.20,0.00, N/A
ShadingProperty Reflectance,L_BLOCK2_1,Detached Shading:Fixed,0.20,0.20,0.00, N/A
ShadingProperty Reflectance,Mir-L_BLOCK2_1,Detached Shading:Fixed,0.20,0.20,0.00, N/A
ShadingProperty Reflectance,L_BLOCK2_2,Detached Shading:Fixed,0.20,0.20,0.00, N/A
ShadingProperty Reflectance,Mir-L_BLOCK2_2,Detached Shading:Fixed,0.20,0.20,0.00, N/A
ShadingProperty Reflectance,L_BLOCK2_3,Detached Shading:Fixed,0.20,0.20,0.00, N/A
ShadingProperty Reflectance,Mir-L_BLOCK2_3,Detached Shading:Fixed,0.20,0.20,0.00, N/A
ShadingProperty Reflectance,L_BLOCK2_4,Detached Shading:Fixed,0.20,0.20,0.00, N/A
ShadingProperty Reflectance,Mir-L_BLOCK2_4,Detached Shading:Fixed,0.20,0.20,0.00, N/A
ShadingProperty Reflectance,SHADING2,Detached Shading:Fixed,0.20,0.20,0.00, N/A
ShadingProperty Reflectance,Mir-SHADING2,Detached Shading:Fixed,0.20,0.20,0.00, N/A
ShadingProperty Reflectance,L_BLOCK3_1,Detached Shading:Fixed,0.20,0.20,0.00, N/A
ShadingProperty Reflectance,Mir-L_BLOCK3_1,Detached Shading:Fixed,0.20,0.20,0.00, N/A
ShadingProperty Reflectance,L_BLOCK3_2,Detached Shading:Fixed,0.20,0.20,0.00, N/A
ShadingProperty Reflectance,Mir-L_BLOCK3_2,Detached Shading:Fixed,0.20,0.20,0.00, N/A
ShadingProperty Reflectance,L_BLOCK3_3,Detached Shading:Fixed,0.20,0.20,0.00, N/A
ShadingProperty Reflectance,Mir-L_BLOCK3_3,Detached Shading:Fixed,0.20,0.20,0.00, N/A
ShadingProperty Reflectance,L_BLOCK3_4,Detached Shading:Fixed,0.20,0.20,0.00, N/A
ShadingProperty Reflectance,Mir-L_BLOCK3_4,Detached Shading:Fixed,0.20,0.20,0.00, N/A
ShadingProperty Reflectance,SHADING3,Detached Shading:Fixed,0.20,0.20,0.00, N/A
ShadingProperty Reflectance,Mir-SHADING3,Detached Shading:Fixed,0.20,0.20,0.00, N/A
ShadingProperty Reflectance,L_BLOCK4_1,Detached Shading:Fixed,0.20,0.20,0.00, N/A
ShadingProperty Reflectance,Mir-L_BLOCK4_1,Detached Shading:Fixed,0.20,0.20,0.00, N/A
ShadingProperty Reflectance,L_BLOCK4_2,Detached Shading:Fixed,0.20,0.20,0.00, N/A
ShadingProperty Reflectance,Mir-L_BLOCK4_2,Detached Shading:Fixed,0.20,0.20,0.00, N/A
ShadingProperty Reflectance,L_BLOCK4_3,Detached Shading:Fixed,0.20,0.20,0.00, N/A
ShadingProperty Reflectance,Mir-L_BLOCK4_3,Detached Shading:Fixed,0.20,0.20,0.00, N/A
ShadingProperty Reflectance,L_BLOCK4_4,Detached Shading:Fixed,0.20,0.20,0.00, N/A
ShadingProperty Reflectance,Mir-L_BLOCK4_4,Detached Shading:Fixed,0.20,0.20,0.00, N/A
ShadingProperty Reflectance,SHADING4,Detached Shading:Fixed,0.20,0.20,0.00, N/A
ShadingProperty Reflectance,Mir-SHADING4,Detached Shading:Fixed,0.20,0.20,0.00, N/A
ShadingProperty Reflectance,L_BLOCK5_1,Detached Shading:Fixed,0.20,0.20,0.00, N/A
ShadingProperty Reflectance,Mir-L_BLOCK5_1,Detached Shading:Fixed,0.20,0.20,0.00, N/A
ShadingProperty Reflectance,L_BLOCK5_2,Detached Shading:Fixed,0.20,0.20,0.00, N/A
ShadingProperty Reflectance,Mir-L_BLOCK5_2,Detached Shading:Fixed,0.20,0.20,0.00, N/A
ShadingProperty Reflectance,L_BLOCK5_3,Detached Shading:Fixed,0.20,0.20,0.00, N/A
ShadingProperty Reflectance,Mir-L_BLOCK5_3,Detached Shading:Fixed,0.20,0.20,0.00, N/A
ShadingProperty Reflectance,L_BLOCK5_4,Detached Shading:Fixed,0.20,0.20,0.00, N/A
ShadingProperty Reflectance,Mir-L_BLOCK5_4,Detached Shading:Fixed,0.20,0.20,0.00, N/A
ShadingProperty Reflectance,L_BLOCK5_5,Detached Shading:Fixed,0.20,0.20,0.00, N/A
ShadingProperty Reflectance,Mir-L_BLOCK5_5,Detached Shading:Fixed,0.20,0.20,0.00, N/A
ShadingProperty Reflectance,L_BLOCK5_6,Detached Shading:Fixed,0.20,0.20,0.00, N/A
ShadingProperty Reflectance,Mir-L_BLOCK5_6,Detached Shading:Fixed,0.20,0.20,0.00, N/A
ShadingProperty Reflectance,L_BLOCK5_7,Detached Shading:Fixed,0.20,0.20,0.00, N/A
ShadingProperty Reflectance,Mir-L_BLOCK5_7,Detached Shading:Fixed,0.20,0.20,0.00, N/A
ShadingProperty Reflectance,L_BLOCK5_8,Detached Shading:Fixed,0.20,0.20,0.00, N/A
ShadingProperty Reflectance,Mir-L_BLOCK5_8,Detached Shading:Fixed,0.20,0.20,0.00, N/A
ShadingProperty Reflectance,L_BLOCK5_9,Detached Shading:Fixed,0.20,0.20,0.00, N/A
ShadingProperty Reflectance,Mir-L_BLOCK5_9,Detached Shading:Fixed,0.20,0.20,0.00, N/A
ShadingProperty Reflectance,L_BLOCK5_10,Detached Shading:Fixed,0.20,0.20,0.00, N/A
ShadingProperty Reflectance,Mir-L_BLOCK5_10,Detached Shading:Fixed,0.20,0.20,0.00, N/A
ShadingProperty Reflectance,L_BLOCK5_11,Detached Shading:Fixed,0.20,0.20,0.00, N/A
ShadingProperty Reflectance,Mir-L_BLOCK5_11,Detached Shading:Fixed,0.20,0.20,0.00, N/A
ShadingProperty Reflectance,L_BLOCK5_12,Detached Shading:Fixed,0.20,0.20,0.00, N/A
ShadingProperty Reflectance,Mir-L_BLOCK5_12,Detached Shading:Fixed,0.20,0.20,0.00, N/A
ShadingProperty Reflectance,SHADING5,Detached Shading:Fixed,0.20,0.20,0.00, N/A
ShadingProperty Reflectance,Mir-SHADING5,Detached Shading:Fixed,0.20,0.20,0.00, N/A
ShadingProperty Reflectance,L_BLOCK6_1,Detached Shading:Fixed,0.20,0.20,0.00, N/A
ShadingProperty Reflectance,Mir-L_BLOCK6_1,Detached Shading:Fixed,0.20,0.20,0.00, N/A
ShadingProperty Reflectance,L_BLOCK6_2,Detached Shading:Fixed,0.20,0.20,0.00, N/A
ShadingProperty Reflectance,Mir-L_BLOCK6_2,Detached Shading:Fixed,0.20,0.20,0.00, N/A
ShadingProperty Reflectance,L_BLOCK6_3,Detached Shading:Fixed,0.20,0.20,0.00, N/A
ShadingProperty Reflectance,Mir-L_BLOCK6_3,Detached Shading:Fixed,0.20,0.20,0.00, N/A
ShadingProperty Reflectance,L_BLOCK6_4,Detached Shading:Fixed,0.20,0.20,0.00, N/A
ShadingProperty Reflectance,Mir-L_BLOCK6_4,Detached Shading:Fixed,0.20,0.20,0.00, N/A
ShadingProperty Reflectance,L_BLOCK6_5,Detached Shading:Fixed,0.20,0.20,0.00, N/A
ShadingProperty Reflectance,Mir-L_BLOCK6_5,Detached Shading:Fixed,0.20,0.20,0.00, N/A
ShadingProperty Reflectance,L_BLOCK6_6,Detached Shading:Fixed,0.20,0.20,0.00, N/A
ShadingProperty Reflectance,Mir-L_BLOCK6_6,Detached Shading:Fixed,0.20,0.20,0.00, N/A
ShadingProperty Reflectance,L_BLOCK6_7,Detached Shading:Fixed,0.20,0.20,0.00, N/A
ShadingProperty Reflectance,Mir-L_BLOCK6_7,Detached Shading:Fixed,0.20,0.20,0.00, N/A
ShadingProperty Reflectance,L_BLOCK6_8,Detached Shading:Fixed,0.20,0.20,0.00, N/A
ShadingProperty Reflectance,Mir-L_BLOCK6_8,Detached Shading:Fixed,0.20,0.20,0.00, N/A
ShadingProperty Reflectance,SHADING6,Detached Shading:Fixed,0.20,0.20,0.00, N/A
ShadingProperty Reflectance,Mir-SHADING6,Detached Shading:Fixed,0.20,0.20,0.00, N/A
ShadingProperty Reflectance,L_BLOCK7_1,Detached Shading:Fixed,0.20,0.20,0.00, N/A
ShadingProperty Reflectance,Mir-L_BLOCK7_1,Detached Shading:Fixed,0.20,0.20,0.00, N/A
ShadingProperty Reflectance,L_BLOCK7_2,Detached Shading:Fixed,0.20,0.20,0.00, N/A
ShadingProperty Reflectance,Mir-L_BLOCK7_2,Detached Shading:Fixed,0.20,0.20,0.00, N/A
ShadingProperty Reflectance,L_BLOCK7_3,Detached Shading:Fixed,0.20,0.20,0.00, N/A
ShadingProperty Reflectance,Mir-L_BLOCK7_3,Detached Shading:Fixed,0.20,0.20,0.00, N/A
ShadingProperty Reflectance,L_BLOCK7_4,Detached Shading:Fixed,0.20,0.20,0.00, N/A
ShadingProperty Reflectance,Mir-L_BLOCK7_4,Detached Shading:Fixed,0.20,0.20,0.00, N/A
ShadingProperty Reflectance,SHADING7,Detached Shading:Fixed,0.20,0.20,0.00, N/A
ShadingProperty Reflectance,Mir-SHADING7,Detached Shading:Fixed,0.20,0.20,0.00, N/A
ShadingProperty Reflectance,L_BLOCK8_1,Detached Shading:Fixed,0.20,0.20,0.00, N/A
ShadingProperty Reflectance,Mir-L_BLOCK8_1,Detached Shading:Fixed,0.20,0.20,0.00, N/A
ShadingProperty Reflectance,L_BLOCK8_2,Detached Shading:Fixed,0.20,0.20,0.00, N/A
ShadingProperty Reflectance,Mir-L_BLOCK8_2,Detached Shading:Fixed,0.20,0.20,0.00, N/A
ShadingProperty Reflectance,L_BLOCK8_3,Detached Shading:Fixed,0.20,0.20,0.00, N/A
ShadingProperty Reflectance,Mir-L_BLOCK8_3,Detached Shading:Fixed,0.20,0.20,0.00, N/A
ShadingProperty Reflectance,L_BLOCK8_4,Detached Shading:Fixed,0.20,0.20,0.00, N/A
ShadingProperty Reflectance,Mir-L_BLOCK8_4,Detached Shading:Fixed,0.20,0.20,0.00, N/A
ShadingProperty Reflectance,L_BLOCK8_5,Detached Shading:Fixed,0.20,0.20,0.00, N/A
ShadingProperty Reflectance,Mir-L_BLOCK8_5,Detached Shading:Fixed,0.20,0.20,0.00, N/A
ShadingProperty Reflectance,SHADING8,Detached Shading:Fixed,0.20,0.20,0.00, N/A
ShadingProperty Reflectance,Mir-SHADING8,Detached Shading:Fixed,0.20,0.20,0.00, N/A
ShadingProperty Reflectance,L_BLOCK9_1,Detached Shading:Fixed,0.20,0.20,0.00, N/A
ShadingProperty Reflectance,Mir-L_BLOCK9_1,Detached Shading:Fixed,0.20,0.20,0.00, N/A
ShadingProperty Reflectance,L_BLOCK9_2,Detached Shading:Fixed,0.20,0.20,0.00, N/A
ShadingProperty Reflectance,Mir-L_BLOCK9_2,Detached Shading:Fixed,0.20,0.20,0.00, N/A
ShadingProperty Reflectance,L_BLOCK9_3,Detached Shading:Fixed,0.20,0.20,0.00, N/A
ShadingProperty Reflectance,Mir-L_BLOCK9_3,Detached Shading:Fixed,0.20,0.20,0.00, N/A
ShadingProperty Reflectance,L_BLOCK9_4,Detached Shading:Fixed,0.20,0.20,0.00, N/A
ShadingProperty Reflectance,Mir-L_BLOCK9_4,Detached Shading:Fixed,0.20,0.20,0.00, N/A
ShadingProperty Reflectance,SHADING9,Detached Shading:Fixed,0.20,0.20,0.00, N/A
ShadingProperty Reflectance,Mir-SHADING9,Detached Shading:Fixed,0.20,0.20,0.00, N/A
ShadingProperty Reflectance,L_BLOCK10_1,Detached Shading:Fixed,0.20,0.20,0.00, N/A
ShadingProperty Reflectance,Mir-L_BLOCK10_1,Detached Shading:Fixed,0.20,0.20,0.00, N/A
ShadingProperty Reflectance,L_BLOCK10_2,Detached Shading:Fixed,0.20,0.20,0.00, N/A
ShadingProperty Reflectance,Mir-L_BLOCK10_2,Detached Shading:Fixed,0.20,0.20,0.00, N/A
ShadingProperty Reflectance,L_BLOCK10_3,Detached Shading:Fixed,0.20,0.20,0.00, N/A
ShadingProperty Reflectance,Mir-L_BLOCK10_3,Detached Shading:Fixed,0.20,0.20,0.00, N/A
ShadingProperty Reflectance,L_BLOCK10_4,Detached Shading:Fixed,0.20,0.20,0.00, N/A
ShadingProperty Reflectance,Mir-L_BLOCK10_4,Detached Shading:Fixed,0.20,0.20,0.00, N/A
ShadingProperty Reflectance,L_BLOCK10_5,Detached Shading:Fixed,0.20,0.20,0.00, N/A
ShadingProperty Reflectance,Mir-L_BLOCK10_5,Detached Shading:Fixed,0.20,0.20,0.00, N/A
ShadingProperty Reflectance,L_BLOCK10_6,Detached Shading:Fixed,0.20,0.20,0.00, N/A
ShadingProperty Reflectance,Mir-L_BLOCK10_6,Detached Shading:Fixed,0.20,0.20,0.00, N/A
ShadingProperty Reflectance,SHADING10,Detached Shading:Fixed,0.20,0.20,0.00, N/A
ShadingProperty Reflectance,Mir-SHADING10,Detached Shading:Fixed,0.20,0.20,0.00, N/A
ShadingProperty Reflectance,L_BLOCK11_1,Detached Shading:Fixed,0.20,0.20,0.00, N/A
ShadingProperty Reflectance,Mir-L_BLOCK11_1,Detached Shading:Fixed,0.20,0.20,0.00, N/A
ShadingProperty Reflectance,L_BLOCK11_2,Detached Shading:Fixed,0.20,0.20,0.00, N/A
ShadingProperty Reflectance,Mir-L_BLOCK11_2,Detached Shading:Fixed,0.20,0.20,0.00, N/A
ShadingProperty Reflectance,L_BLOCK11_3,Detached Shading:Fixed,0.20,0.20,0.00, N/A
ShadingProperty Reflectance,Mir-L_BLOCK11_3,Detached Shading:Fixed,0.20,0.20,0.00, N/A
ShadingProperty Reflectance,L_BLOCK11_4,Detached Shading:Fixed,0.20,0.20,0.00, N/A
ShadingProperty Reflectance,Mir-L_BLOCK11_4,Detached Shading:Fixed,0.20,0.20,0.00, N/A
ShadingProperty Reflectance,SHADING11,Detached Shading:Fixed,0.20,0.20,0.00, N/A
ShadingProperty Reflectance,Mir-SHADING11,Detached Shading:Fixed,0.20,0.20,0.00, N/A
ShadingProperty Reflectance,L_BLOCK12_1,Detached Shading:Fixed,0.20,0.20,0.00, N/A
ShadingProperty Reflectance,Mir-L_BLOCK12_1,Detached Shading:Fixed,0.20,0.20,0.00, N/A
ShadingProperty Reflectance,L_BLOCK12_2,Detached Shading:Fixed,0.20,0.20,0.00, N/A
ShadingProperty Reflectance,Mir-L_BLOCK12_2,Detached Shading:Fixed,0.20,0.20,0.00, N/A
ShadingProperty Reflectance,L_BLOCK12_3,Detached Shading:Fixed,0.20,0.20,0.00, N/A
ShadingProperty Reflectance,Mir-L_BLOCK12_3,Detached Shading:Fixed,0.20,0.20,0.00, N/A
ShadingProperty Reflectance,L_BLOCK12_4,Detached Shading:Fixed,0.20,0.20,0.00, N/A
ShadingProperty Reflectance,Mir-L_BLOCK12_4,Detached Shading:Fixed,0.20,0.20,0.00, N/A
ShadingProperty Reflectance,L_BLOCK12_5,Detached Shading:Fixed,0.20,0.20,0.00, N/A
ShadingProperty Reflectance,Mir-L_BLOCK12_5,Detached Shading:Fixed,0.20,0.20,0.00, N/A
ShadingProperty Reflectance,SHADING12,Detached Shading:Fixed,0.20,0.20,0.00, N/A
ShadingProperty Reflectance,Mir-SHADING12,Detached Shading:Fixed,0.20,0.20,0.00, N/A
ShadingProperty Reflectance,L_BLOCK13_1,Detached Shading:Fixed,0.20,0.20,0.00, N/A
ShadingProperty Reflectance,Mir-L_BLOCK13_1,Detached Shading:Fixed,0.20,0.20,0.00, N/A
ShadingProperty Reflectance,L_BLOCK13_2,Detached Shading:Fixed,0.20,0.20,0.00, N/A
ShadingProperty Reflectance,Mir-L_BLOCK13_2,Detached Shading:Fixed,0.20,0.20,0.00, N/A
ShadingProperty Reflectance,L_BLOCK13_3,Detached Shading:Fixed,0.20,0.20,0.00, N/A
ShadingProperty Reflectance,Mir-L_BLOCK13_3,Detached Shading:Fixed,0.20,0.20,0.00, N/A
ShadingProperty Reflectance,L_BLOCK13_4,Detached Shading:Fixed,0.20,0.20,0.00, N/A
ShadingProperty Reflectance,Mir-L_BLOCK13_4,Detached Shading:Fixed,0.20,0.20,0.00, N/A
ShadingProperty Reflectance,SHADING13,Detached Shading:Fixed,0.20,0.20,0.00, N/A
ShadingProperty Reflectance,Mir-SHADING13,Detached Shading:Fixed,0.20,0.20,0.00, N/A
ShadingProperty Reflectance,L_BLOCK14_1,Detached Shading:Fixed,0.20,0.20,0.00, N/A
ShadingProperty Reflectance,Mir-L_BLOCK14_1,Detached Shading:Fixed,0.20,0.20,0.00, N/A
ShadingProperty Reflectance,L_BLOCK14_2,Detached Shading:Fixed,0.20,0.20,0.00, N/A
ShadingProperty Reflectance,Mir-L_BLOCK14_2,Detached Shading:Fixed,0.20,0.20,0.00, N/A
ShadingProperty Reflectance,L_BLOCK14_3,Detached Shading:Fixed,0.20,0.20,0.00, N/A
ShadingProperty Reflectance,Mir-L_BLOCK14_3,Detached Shading:Fixed,0.20,0.20,0.00, N/A
ShadingProperty Reflectance,L_BLOCK14_4,Detached Shading:Fixed,0.20,0.20,0.00, N/A
ShadingProperty Reflectance,Mir-L_BLOCK14_4,Detached Shading:Fixed,0.20,0.20,0.00, N/A
ShadingProperty Reflectance,L_BLOCK14_5,Detached Shading:Fixed,0.20,0.20,0.00, N/A
ShadingProperty Reflectance,Mir-L_BLOCK14_5,Detached Shading:Fixed,0.20,0.20,0.00, N/A
ShadingProperty Reflectance,L_BLOCK14_6,Detached Shading:Fixed,0.20,0.20,0.00, N/A
ShadingProperty Reflectance,Mir-L_BLOCK14_6,Detached Shading:Fixed,0.20,0.20,0.00, N/A
ShadingProperty Reflectance,L_BLOCK14_7,Detached Shading:Fixed,0.20,0.20,0.00, N/A
ShadingProperty Reflectance,Mir-L_BLOCK14_7,Detached Shading:Fixed,0.20,0.20,0.00, N/A
ShadingProperty Reflectance,SHADING14,Detached Shading:Fixed,0.20,0.20,0.00, N/A
ShadingProperty Reflectance,Mir-SHADING14,Detached Shading:Fixed,0.20,0.20,0.00, N/A
ShadingProperty Reflectance,L_BLOCK15_1,Detached Shading:Fixed,0.20,0.20,0.00, N/A
ShadingProperty Reflectance,Mir-L_BLOCK15_1,Detached Shading:Fixed,0.20,0.20,0.00, N/A
ShadingProperty Reflectance,L_BLOCK15_2,Detached Shading:Fixed,0.20,0.20,0.00, N/A
ShadingProperty Reflectance,Mir-L_BLOCK15_2,Detached Shading:Fixed,0.20,0.20,0.00, N/A
ShadingProperty Reflectance,L_BLOCK15_3,Detached Shading:Fixed,0.20,0.20,0.00, N/A
ShadingProperty Reflectance,Mir-L_BLOCK15_3,Detached Shading:Fixed,0.20,0.20,0.00, N/A
ShadingProperty Reflectance,L_BLOCK15_4,Detached Shading:Fixed,0.20,0.20,0.00, N/A
ShadingProperty Reflectance,Mir-L_BLOCK15_4,Detached Shading:Fixed,0.20,0.20,0.00, N/A
ShadingProperty Reflectance,L_BLOCK15_5,Detached Shading:Fixed,0.20,0.20,0.00, N/A
ShadingProperty Reflectance,Mir-L_BLOCK15_5,Detached Shading:Fixed,0.20,0.20,0.00, N/A
ShadingProperty Reflectance,L_BLOCK15_6,Detached Shading:Fixed,0.20,0.20,0.00, N/A
ShadingProperty Reflectance,Mir-L_BLOCK15_6,Detached Shading:Fixed,0.20,0.20,0.00, N/A
ShadingProperty Reflectance,L_BLOCK15_7,Detached Shading:Fixed,0.20,0.20,0.00, N/A
ShadingProperty Reflectance,Mir-L_BLOCK15_7,Detached Shading:Fixed,0.20,0.20,0.00, N/A
ShadingProperty Reflectance,L_BLOCK15_8,Detached Shading:Fixed,0.20,0.20,0.00, N/A
ShadingProperty Reflectance,Mir-L_BLOCK15_8,Detached Shading:Fixed,0.20,0.20,0.00, N/A
ShadingProperty Reflectance,L_BLOCK15_9,Detached Shading:Fixed,0.20,0.20,0.00, N/A
ShadingProperty Reflectance,Mir-L_BLOCK15_9,Detached Shading:Fixed,0.20,0.20,0.00, N/A
ShadingProperty Reflectance,L_BLOCK15_10,Detached Shading:Fixed,0.20,0.20,0.00, N/A
ShadingProperty Reflectance,Mir-L_BLOCK15_10,Detached Shading:Fixed,0.20,0.20,0.00, N/A
ShadingProperty Reflectance,L_BLOCK15_11,Detached Shading:Fixed,0.20,0.20,0.00, N/A
ShadingProperty Reflectance,Mir-L_BLOCK15_11,Detached Shading:Fixed,0.20,0.20,0.00, N/A
ShadingProperty Reflectance,L_BLOCK15_12,Detached Shading:Fixed,0.20,0.20,0.00, N/A
ShadingProperty Reflectance,Mir-L_BLOCK15_12,Detached Shading:Fixed,0.20,0.20,0.00, N/A
ShadingProperty Reflectance,L_BLOCK15_13,Detached Shading:Fixed,0.20,0.20,0.00, N/A
ShadingProperty Reflectance,Mir-L_BLOCK15_13,Detached Shading:Fixed,0.20,0.20,0.00, N/A
ShadingProperty Reflectance,L_BLOCK15_14,Detached Shading:Fixed,0.20,0.20,0.00, N/A
ShadingProperty Reflectance,Mir-L_BLOCK15_14,Detached Shading:Fixed,0.20,0.20,0.00, N/A
ShadingProperty Reflectance,L_BLOCK15_15,Detached Shading:Fixed,0.20,0.20,0.00, N/A
ShadingProperty Reflectance,Mir-L_BLOCK15_15,Detached Shading:Fixed,0.20,0.20,0.00, N/A
ShadingProperty Reflectance,L_BLOCK15_16,Detached Shading:Fixed,0.20,0.20,0.00, N/A
ShadingProperty Reflectance,Mir-L_BLOCK15_16,Detached Shading:Fixed,0.20,0.20,0.00, N/A
ShadingProperty Reflectance,L_BLOCK15_17,Detached Shading:Fixed,0.20,0.20,0.00, N/A
ShadingProperty Reflectance,Mir-L_BLOCK15_17,Detached Shading:Fixed,0.20,0.20,0.00, N/A
ShadingProperty Reflectance,L_BLOCK15_18,Detached Shading:Fixed,0.20,0.20,0.00, N/A
ShadingProperty Reflectance,Mir-L_BLOCK15_18,Detached Shading:Fixed,0.20,0.20,0.00, N/A
ShadingProperty Reflectance,L_BLOCK15_19,Detached Shading:Fixed,0.20,0.20,0.00, N/A
ShadingProperty Reflectance,Mir-L_BLOCK15_19,Detached Shading:Fixed,0.20,0.20,0.00, N/A
ShadingProperty Reflectance,L_BLOCK15_20,Detached Shading:Fixed,0.20,0.20,0.00, N/A
ShadingProperty Reflectance,Mir-L_BLOCK15_20,Detached Shading:Fixed,0.20,0.20,0.00, N/A
ShadingProperty Reflectance,L_BLOCK15_21,Detached Shading:Fixed,0.20,0.20,0.00, N/A
ShadingProperty Reflectance,Mir-L_BLOCK15_21,Detached Shading:Fixed,0.20,0.20,0.00, N/A
ShadingProperty Reflectance,L_BLOCK15_22,Detached Shading:Fixed,0.20,0.20,0.00, N/A
ShadingProperty Reflectance,Mir-L_BLOCK15_22,Detached Shading:Fixed,0.20,0.20,0.00, N/A
ShadingProperty Reflectance,L_BLOCK15_23,Detached Shading:Fixed,0.20,0.20,0.00, N/A
ShadingProperty Reflectance,Mir-L_BLOCK15_23,Detached Shading:Fixed,0.20,0.20,0.00, N/A
ShadingProperty Reflectance,SHADING15,Detached Shading:Fixed,0.20,0.20,0.00, N/A
ShadingProperty Reflectance,Mir-SHADING15,Detached Shading:Fixed,0.20,0.20,0.00, N/A
ShadingProperty Reflectance,L_BLOCK16_1,Detached Shading:Fixed,0.20,0.20,0.00, N/A
ShadingProperty Reflectance,Mir-L_BLOCK16_1,Detached Shading:Fixed,0.20,0.20,0.00, N/A
ShadingProperty Reflectance,L_BLOCK16_2,Detached Shading:Fixed,0.20,0.20,0.00, N/A
ShadingProperty Reflectance,Mir-L_BLOCK16_2,Detached Shading:Fixed,0.20,0.20,0.00, N/A
ShadingProperty Reflectance,L_BLOCK16_3,Detached Shading:Fixed,0.20,0.20,0.00, N/A
ShadingProperty Reflectance,Mir-L_BLOCK16_3,Detached Shading:Fixed,0.20,0.20,0.00, N/A
ShadingProperty Reflectance,L_BLOCK16_4,Detached Shading:Fixed,0.20,0.20,0.00, N/A
ShadingProperty Reflectance,Mir-L_BLOCK16_4,Detached Shading:Fixed,0.20,0.20,0.00, N/A
ShadingProperty Reflectance,L_BLOCK16_5,Detached Shading:Fixed,0.20,0.20,0.00, N/A
ShadingProperty Reflectance,Mir-L_BLOCK16_5,Detached Shading:Fixed,0.20,0.20,0.00, N/A
ShadingProperty Reflectance,L_BLOCK16_6,Detached Shading:Fixed,0.20,0.20,0.00, N/A
ShadingProperty Reflectance,Mir-L_BLOCK16_6,Detached Shading:Fixed,0.20,0.20,0.00, N/A
ShadingProperty Reflectance,L_BLOCK16_7,Detached Shading:Fixed,0.20,0.20,0.00, N/A
ShadingProperty Reflectance,Mir-L_BLOCK16_7,Detached Shading:Fixed,0.20,0.20,0.00, N/A
ShadingProperty Reflectance,L_BLOCK16_8,Detached Shading:Fixed,0.20,0.20,0.00, N/A
ShadingProperty Reflectance,Mir-L_BLOCK16_8,Detached Shading:Fixed,0.20,0.20,0.00, N/A
ShadingProperty Reflectance,L_BLOCK16_9,Detached Shading:Fixed,0.20,0.20,0.00, N/A
ShadingProperty Reflectance,Mir-L_BLOCK16_9,Detached Shading:Fixed,0.20,0.20,0.00, N/A
ShadingProperty Reflectance,L_BLOCK16_10,Detached Shading:Fixed,0.20,0.20,0.00, N/A
ShadingProperty Reflectance,Mir-L_BLOCK16_10,Detached Shading:Fixed,0.20,0.20,0.00, N/A
ShadingProperty Reflectance,SHADING16,Detached Shading:Fixed,0.20,0.20,0.00, N/A
ShadingProperty Reflectance,Mir-SHADING16,Detached Shading:Fixed,0.20,0.20,0.00, N/A
ShadingProperty Reflectance,L_BLOCK17_1,Detached Shading:Fixed,0.20,0.20,0.00, N/A
ShadingProperty Reflectance,Mir-L_BLOCK17_1,Detached Shading:Fixed,0.20,0.20,0.00, N/A
ShadingProperty Reflectance,L_BLOCK17_2,Detached Shading:Fixed,0.20,0.20,0.00, N/A
ShadingProperty Reflectance,Mir-L_BLOCK17_2,Detached Shading:Fixed,0.20,0.20,0.00, N/A
ShadingProperty Reflectance,L_BLOCK17_3,Detached Shading:Fixed,0.20,0.20,0.00, N/A
ShadingProperty Reflectance,Mir-L_BLOCK17_3,Detached Shading:Fixed,0.20,0.20,0.00, N/A
ShadingProperty Reflectance,L_BLOCK17_4,Detached Shading:Fixed,0.20,0.20,0.00, N/A
ShadingProperty Reflectance,Mir-L_BLOCK17_4,Detached Shading:Fixed,0.20,0.20,0.00, N/A
ShadingProperty Reflectance,L_BLOCK17_5,Detached Shading:Fixed,0.20,0.20,0.00, N/A
ShadingProperty Reflectance,Mir-L_BLOCK17_5,Detached Shading:Fixed,0.20,0.20,0.00, N/A
ShadingProperty Reflectance,L_BLOCK17_6,Detached Shading:Fixed,0.20,0.20,0.00, N/A
ShadingProperty Reflectance,Mir-L_BLOCK17_6,Detached Shading:Fixed,0.20,0.20,0.00, N/A
ShadingProperty Reflectance,SHADING17,Detached Shading:Fixed,0.20,0.20,0.00, N/A
ShadingProperty Reflectance,Mir-SHADING17,Detached Shading:Fixed,0.20,0.20,0.00, N/A
ShadingProperty Reflectance,L_BLOCK18_1,Detached Shading:Fixed,0.20,0.20,0.00, N/A
ShadingProperty Reflectance,Mir-L_BLOCK18_1,Detached Shading:Fixed,0.20,0.20,0.00, N/A
ShadingProperty Reflectance,L_BLOCK18_2,Detached Shading:Fixed,0.20,0.20,0.00, N/A
ShadingProperty Reflectance,Mir-L_BLOCK18_2,Detached Shading:Fixed,0.20,0.20,0.00, N/A
ShadingProperty Reflectance,L_BLOCK18_3,Detached Shading:Fixed,0.20,0.20,0.00, N/A
ShadingProperty Reflectance,Mir-L_BLOCK18_3,Detached Shading:Fixed,0.20,0.20,0.00, N/A
ShadingProperty Reflectance,L_BLOCK18_4,Detached Shading:Fixed,0.20,0.20,0.00, N/A
ShadingProperty Reflectance,Mir-L_BLOCK18_4,Detached Shading:Fixed,0.20,0.20,0.00, N/A
ShadingProperty Reflectance,L_BLOCK18_5,Detached Shading:Fixed,0.20,0.20,0.00, N/A
ShadingProperty Reflectance,Mir-L_BLOCK18_5,Detached Shading:Fixed,0.20,0.20,0.00, N/A
ShadingProperty Reflectance,L_BLOCK18_6,Detached Shading:Fixed,0.20,0.20,0.00, N/A
ShadingProperty Reflectance,Mir-L_BLOCK18_6,Detached Shading:Fixed,0.20,0.20,0.00, N/A
ShadingProperty Reflectance,L_BLOCK18_7,Detached Shading:Fixed,0.20,0.20,0.00, N/A
ShadingProperty Reflectance,Mir-L_BLOCK18_7,Detached Shading:Fixed,0.20,0.20,0.00, N/A
ShadingProperty Reflectance,SHADING18,Detached Shading:Fixed,0.20,0.20,0.00, N/A
ShadingProperty Reflectance,Mir-SHADING18,Detached Shading:Fixed,0.20,0.20,0.00, N/A
ShadingProperty Reflectance,L_BLOCK19_1,Detached Shading:Fixed,0.20,0.20,0.00, N/A
ShadingProperty Reflectance,Mir-L_BLOCK19_1,Detached Shading:Fixed,0.20,0.20,0.00, N/A
ShadingProperty Reflectance,L_BLOCK19_2,Detached Shading:Fixed,0.20,0.20,0.00, N/A
ShadingProperty Reflectance,Mir-L_BLOCK19_2,Detached Shading:Fixed,0.20,0.20,0.00, N/A
ShadingProperty Reflectance,L_BLOCK19_3,Detached Shading:Fixed,0.20,0.20,0.00, N/A
ShadingProperty Reflectance,Mir-L_BLOCK19_3,Detached Shading:Fixed,0.20,0.20,0.00, N/A
ShadingProperty Reflectance,L_BLOCK19_4,Detached Shading:Fixed,0.20,0.20,0.00, N/A
ShadingProperty Reflectance,Mir-L_BLOCK19_4,Detached Shading:Fixed,0.20,0.20,0.00, N/A
ShadingProperty Reflectance,L_BLOCK19_5,Detached Shading:Fixed,0.20,0.20,0.00, N/A
ShadingProperty Reflectance,Mir-L_BLOCK19_5,Detached Shading:Fixed,0.20,0.20,0.00, N/A
ShadingProperty Reflectance,L_BLOCK19_6,Detached Shading:Fixed,0.20,0.20,0.00, N/A
ShadingProperty Reflectance,Mir-L_BLOCK19_6,Detached Shading:Fixed,0.20,0.20,0.00, N/A
ShadingProperty Reflectance,L_BLOCK19_7,Detached Shading:Fixed,0.20,0.20,0.00, N/A
ShadingProperty Reflectance,Mir-L_BLOCK19_7,Detached Shading:Fixed,0.20,0.20,0.00, N/A
ShadingProperty Reflectance,L_BLOCK19_8,Detached Shading:Fixed,0.20,0.20,0.00, N/A
ShadingProperty Reflectance,Mir-L_BLOCK19_8,Detached Shading:Fixed,0.20,0.20,0.00, N/A
ShadingProperty Reflectance,L_BLOCK19_9,Detached Shading:Fixed,0.20,0.20,0.00, N/A
ShadingProperty Reflectance,Mir-L_BLOCK19_9,Detached Shading:Fixed,0.20,0.20,0.00, N/A
ShadingProperty Reflectance,SHADING19,Detached Shading:Fixed,0.20,0.20,0.00, N/A
ShadingProperty Reflectance,Mir-SHADING19,Detached Shading:Fixed,0.20,0.20,0.00, N/A
ShadingProperty Reflectance,L_BLOCK20_1,Detached Shading:Fixed,0.20,0.20,0.00, N/A
ShadingProperty Reflectance,Mir-L_BLOCK20_1,Detached Shading:Fixed,0.20,0.20,0.00, N/A
ShadingProperty Reflectance,L_BLOCK20_2,Detached Shading:Fixed,0.20,0.20,0.00, N/A
ShadingProperty Reflectance,Mir-L_BLOCK20_2,Detached Shading:Fixed,0.20,0.20,0.00, N/A
ShadingProperty Reflectance,L_BLOCK20_3,Detached Shading:Fixed,0.20,0.20,0.00, N/A
ShadingProperty Reflectance,Mir-L_BLOCK20_3,Detached Shading:Fixed,0.20,0.20,0.00, N/A
ShadingProperty Reflectance,L_BLOCK20_4,Detached Shading:Fixed,0.20,0.20,0.00, N/A
ShadingProperty Reflectance,Mir-L_BLOCK20_4,Detached Shading:Fixed,0.20,0.20,0.00, N/A
ShadingProperty Reflectance,SHADING20,Detached Shading:Fixed,0.20,0.20,0.00, N/A
ShadingProperty Reflectance,Mir-SHADING20,Detached Shading:Fixed,0.20,0.20,0.00, N/A
ShadingProperty Reflectance,L_BLOCK21_1,Detached Shading:Fixed,0.20,0.20,0.00, N/A
ShadingProperty Reflectance,Mir-L_BLOCK21_1,Detached Shading:Fixed,0.20,0.20,0.00, N/A
ShadingProperty Reflectance,L_BLOCK21_2,Detached Shading:Fixed,0.20,0.20,0.00, N/A
ShadingProperty Reflectance,Mir-L_BLOCK21_2,Detached Shading:Fixed,0.20,0.20,0.00, N/A
ShadingProperty Reflectance,L_BLOCK21_3,Detached Shading:Fixed,0.20,0.20,0.00, N/A
ShadingProperty Reflectance,Mir-L_BLOCK21_3,Detached Shading:Fixed,0.20,0.20,0.00, N/A
ShadingProperty Reflectance,L_BLOCK21_4,Detached Shading:Fixed,0.20,0.20,0.00, N/A
ShadingProperty Reflectance,Mir-L_BLOCK21_4,Detached Shading:Fixed,0.20,0.20,0.00, N/A
ShadingProperty Reflectance,L_BLOCK21_5,Detached Shading:Fixed,0.20,0.20,0.00, N/A
ShadingProperty Reflectance,Mir-L_BLOCK21_5,Detached Shading:Fixed,0.20,0.20,0.00, N/A
ShadingProperty Reflectance,L_BLOCK21_6,Detached Shading:Fixed,0.20,0.20,0.00, N/A
ShadingProperty Reflectance,Mir-L_BLOCK21_6,Detached Shading:Fixed,0.20,0.20,0.00, N/A
ShadingProperty Reflectance,L_BLOCK21_7,Detached Shading:Fixed,0.20,0.20,0.00, N/A
ShadingProperty Reflectance,Mir-L_BLOCK21_7,Detached Shading:Fixed,0.20,0.20,0.00, N/A
ShadingProperty Reflectance,L_BLOCK21_8,Detached Shading:Fixed,0.20,0.20,0.00, N/A
ShadingProperty Reflectance,Mir-L_BLOCK21_8,Detached Shading:Fixed,0.20,0.20,0.00, N/A
ShadingProperty Reflectance,L_BLOCK21_9,Detached Shading:Fixed,0.20,0.20,0.00, N/A
ShadingProperty Reflectance,Mir-L_BLOCK21_9,Detached Shading:Fixed,0.20,0.20,0.00, N/A
ShadingProperty Reflectance,SHADING21,Detached Shading:Fixed,0.20,0.20,0.00, N/A
ShadingProperty Reflectance,Mir-SHADING21,Detached Shading:Fixed,0.20,0.20,0.00, N/A
ShadingProperty Reflectance,L_BLOCK22_1,Detached Shading:Fixed,0.20,0.20,0.00, N/A
ShadingProperty Reflectance,Mir-L_BLOCK22_1,Detached Shading:Fixed,0.20,0.20,0.00, N/A
ShadingProperty Reflectance,L_BLOCK22_2,Detached Shading:Fixed,0.20,0.20,0.00, N/A
ShadingProperty Reflectance,Mir-L_BLOCK22_2,Detached Shading:Fixed,0.20,0.20,0.00, N/A
ShadingProperty Reflectance,L_BLOCK22_3,Detached Shading:Fixed,0.20,0.20,0.00, N/A
ShadingProperty Reflectance,Mir-L_BLOCK22_3,Detached Shading:Fixed,0.20,0.20,0.00, N/A
ShadingProperty Reflectance,L_BLOCK22_4,Detached Shading:Fixed,0.20,0.20,0.00, N/A
ShadingProperty Reflectance,Mir-L_BLOCK22_4,Detached Shading:Fixed,0.20,0.20,0.00, N/A
ShadingProperty Reflectance,L_BLOCK22_5,Detached Shading:Fixed,0.20,0.20,0.00, N/A
ShadingProperty Reflectance,Mir-L_BLOCK22_5,Detached Shading:Fixed,0.20,0.20,0.00, N/A
ShadingProperty Reflectance,L_BLOCK22_6,Detached Shading:Fixed,0.20,0.20,0.00, N/A
ShadingProperty Reflectance,Mir-L_BLOCK22_6,Detached Shading:Fixed,0.20,0.20,0.00, N/A
ShadingProperty Reflectance,L_BLOCK22_7,Detached Shading:Fixed,0.20,0.20,0.00, N/A
ShadingProperty Reflectance,Mir-L_BLOCK22_7,Detached Shading:Fixed,0.20,0.20,0.00, N/A
ShadingProperty Reflectance,L_BLOCK22_8,Detached Shading:Fixed,0.20,0.20,0.00, N/A
ShadingProperty Reflectance,Mir-L_BLOCK22_8,Detached Shading:Fixed,0.20,0.20,0.00, N/A
ShadingProperty Reflectance,L_BLOCK22_9,Detached Shading:Fixed,0.20,0.20,0.00, N/A
ShadingProperty Reflectance,Mir-L_BLOCK22_9,Detached Shading:Fixed,0.20,0.20,0.00, N/A
ShadingProperty Reflectance,SHADING22,Detached Shading:Fixed,0.20,0.20,0.00, N/A
ShadingProperty Reflectance,Mir-SHADING22,Detached Shading:Fixed,0.20,0.20,0.00, N/A
ShadingProperty Reflectance,L_BLOCK23_1,Detached Shading:Fixed,0.20,0.20,0.00, N/A
ShadingProperty Reflectance,Mir-L_BLOCK23_1,Detached Shading:Fixed,0.20,0.20,0.00, N/A
ShadingProperty Reflectance,L_BLOCK23_2,Detached Shading:Fixed,0.20,0.20,0.00, N/A
ShadingProperty Reflectance,Mir-L_BLOCK23_2,Detached Shading:Fixed,0.20,0.20,0.00, N/A
ShadingProperty Reflectance,L_BLOCK23_3,Detached Shading:Fixed,0.20,0.20,0.00, N/A
ShadingProperty Reflectance,Mir-L_BLOCK23_3,Detached Shading:Fixed,0.20,0.20,0.00, N/A
ShadingProperty Reflectance,L_BLOCK23_4,Detached Shading:Fixed,0.20,0.20,0.00, N/A
ShadingProperty Reflectance,Mir-L_BLOCK23_4,Detached Shading:Fixed,0.20,0.20,0.00, N/A
ShadingProperty Reflectance,L_BLOCK23_5,Detached Shading:Fixed,0.20,0.20,0.00, N/A
ShadingProperty Reflectance,Mir-L_BLOCK23_5,Detached Shading:Fixed,0.20,0.20,0.00, N/A
ShadingProperty Reflectance,L_BLOCK23_6,Detached Shading:Fixed,0.20,0.20,0.00, N/A
ShadingProperty Reflectance,Mir-L_BLOCK23_6,Detached Shading:Fixed,0.20,0.20,0.00, N/A
ShadingProperty Reflectance,SHADING23,Detached Shading:Fixed,0.20,0.20,0.00, N/A
ShadingProperty Reflectance,Mir-SHADING23,Detached Shading:Fixed,0.20,0.20,0.00, N/A
ShadingProperty Reflectance,L_BLOCK24_1,Detached Shading:Fixed,0.20,0.20,0.00, N/A
ShadingProperty Reflectance,Mir-L_BLOCK24_1,Detached Shading:Fixed,0.20,0.20,0.00, N/A
ShadingProperty Reflectance,L_BLOCK24_2,Detached Shading:Fixed,0.20,0.20,0.00, N/A
ShadingProperty Reflectance,Mir-L_BLOCK24_2,Detached Shading:Fixed,0.20,0.20,0.00, N/A
ShadingProperty Reflectance,L_BLOCK24_3,Detached Shading:Fixed,0.20,0.20,0.00, N/A
ShadingProperty Reflectance,Mir-L_BLOCK24_3,Detached Shading:Fixed,0.20,0.20,0.00, N/A
ShadingProperty Reflectance,L_BLOCK24_4,Detached Shading:Fixed,0.20,0.20,0.00, N/A
ShadingProperty Reflectance,Mir-L_BLOCK24_4,Detached Shading:Fixed,0.20,0.20,0.00, N/A
ShadingProperty Reflectance,SHADING24,Detached Shading:Fixed,0.20,0.20,0.00, N/A
ShadingProperty Reflectance,Mir-SHADING24,Detached Shading:Fixed,0.20,0.20,0.00, N/A
ShadingProperty Reflectance,L_BLOCK25_1,Detached Shading:Fixed,0.20,0.20,0.00, N/A
ShadingProperty Reflectance,Mir-L_BLOCK25_1,Detached Shading:Fixed,0.20,0.20,0.00, N/A
ShadingProperty Reflectance,L_BLOCK25_2,Detached Shading:Fixed,0.20,0.20,0.00, N/A
ShadingProperty Reflectance,Mir-L_BLOCK25_2,Detached Shading:Fixed,0.20,0.20,0.00, N/A
ShadingProperty Reflectance,L_BLOCK25_3,Detached Shading:Fixed,0.20,0.20,0.00, N/A
ShadingProperty Reflectance,Mir-L_BLOCK25_3,Detached Shading:Fixed,0.20,0.20,0.00, N/A
ShadingProperty Reflectance,L_BLOCK25_4,Detached Shading:Fixed,0.20,0.20,0.00, N/A
ShadingProperty Reflectance,Mir-L_BLOCK25_4,Detached Shading:Fixed,0.20,0.20,0.00, N/A
ShadingProperty Reflectance,SHADING25,Detached Shading:Fixed,0.20,0.20,0.00, N/A
ShadingProperty Reflectance,Mir-SHADING25,Detached Shading:Fixed,0.20,0.20,0.00, N/A
ShadingProperty Reflectance,L_BLOCK26_1,Detached Shading:Fixed,0.20,0.20,0.00, N/A
ShadingProperty Reflectance,Mir-L_BLOCK26_1,Detached Shading:Fixed,0.20,0.20,0.00, N/A
ShadingProperty Reflectance,L_BLOCK26_2,Detached Shading:Fixed,0.20,0.20,0.00, N/A
ShadingProperty Reflectance,Mir-L_BLOCK26_2,Detached Shading:Fixed,0.20,0.20,0.00, N/A
ShadingProperty Reflectance,L_BLOCK26_3,Detached Shading:Fixed,0.20,0.20,0.00, N/A
ShadingProperty Reflectance,Mir-L_BLOCK26_3,Detached Shading:Fixed,0.20,0.20,0.00, N/A
ShadingProperty Reflectance,L_BLOCK26_4,Detached Shading:Fixed,0.20,0.20,0.00, N/A
ShadingProperty Reflectance,Mir-L_BLOCK26_4,Detached Shading:Fixed,0.20,0.20,0.00, N/A
ShadingProperty Reflectance,L_BLOCK26_5,Detached Shading:Fixed,0.20,0.20,0.00, N/A
ShadingProperty Reflectance,Mir-L_BLOCK26_5,Detached Shading:Fixed,0.20,0.20,0.00, N/A
ShadingProperty Reflectance,L_BLOCK26_6,Detached Shading:Fixed,0.20,0.20,0.00, N/A
ShadingProperty Reflectance,Mir-L_BLOCK26_6,Detached Shading:Fixed,0.20,0.20,0.00, N/A
ShadingProperty Reflectance,SHADING26,Detached Shading:Fixed,0.20,0.20,0.00, N/A
ShadingProperty Reflectance,Mir-SHADING26,Detached Shading:Fixed,0.20,0.20,0.00, N/A
ShadingProperty Reflectance,L_BLOCK27_1,Detached Shading:Fixed,0.20,0.20,0.00, N/A
ShadingProperty Reflectance,Mir-L_BLOCK27_1,Detached Shading:Fixed,0.20,0.20,0.00, N/A
ShadingProperty Reflectance,L_BLOCK27_2,Detached Shading:Fixed,0.20,0.20,0.00, N/A
ShadingProperty Reflectance,Mir-L_BLOCK27_2,Detached Shading:Fixed,0.20,0.20,0.00, N/A
ShadingProperty Reflectance,L_BLOCK27_3,Detached Shading:Fixed,0.20,0.20,0.00, N/A
ShadingProperty Reflectance,Mir-L_BLOCK27_3,Detached Shading:Fixed,0.20,0.20,0.00, N/A
ShadingProperty Reflectance,L_BLOCK27_4,Detached Shading:Fixed,0.20,0.20,0.00, N/A
ShadingProperty Reflectance,Mir-L_BLOCK27_4,Detached Shading:Fixed,0.20,0.20,0.00, N/A
ShadingProperty Reflectance,SHADING27,Detached Shading:Fixed,0.20,0.20,0.00, N/A
ShadingProperty Reflectance,Mir-SHADING27,Detached Shading:Fixed,0.20,0.20,0.00, N/A
ShadingProperty Reflectance,L_BLOCK28_1,Detached Shading:Fixed,0.20,0.20,0.00, N/A
ShadingProperty Reflectance,Mir-L_BLOCK28_1,Detached Shading:Fixed,0.20,0.20,0.00, N/A
ShadingProperty Reflectance,L_BLOCK28_2,Detached Shading:Fixed,0.20,0.20,0.00, N/A
ShadingProperty Reflectance,Mir-L_BLOCK28_2,Detached Shading:Fixed,0.20,0.20,0.00, N/A
ShadingProperty Reflectance,L_BLOCK28_3,Detached Shading:Fixed,0.20,0.20,0.00, N/A
ShadingProperty Reflectance,Mir-L_BLOCK28_3,Detached Shading:Fixed,0.20,0.20,0.00, N/A
ShadingProperty Reflectance,L_BLOCK28_4,Detached Shading:Fixed,0.20,0.20,0.00, N/A
ShadingProperty Reflectance,Mir-L_BLOCK28_4,Detached Shading:Fixed,0.20,0.20,0.00, N/A
ShadingProperty Reflectance,L_BLOCK28_5,Detached Shading:Fixed,0.20,0.20,0.00, N/A
ShadingProperty Reflectance,Mir-L_BLOCK28_5,Detached Shading:Fixed,0.20,0.20,0.00, N/A
ShadingProperty Reflectance,L_BLOCK28_6,Detached Shading:Fixed,0.20,0.20,0.00, N/A
ShadingProperty Reflectance,Mir-L_BLOCK28_6,Detached Shading:Fixed,0.20,0.20,0.00, N/A
ShadingProperty Reflectance,L_BLOCK28_7,Detached Shading:Fixed,0.20,0.20,0.00, N/A
ShadingProperty Reflectance,Mir-L_BLOCK28_7,Detached Shading:Fixed,0.20,0.20,0.00, N/A
ShadingProperty Reflectance,L_BLOCK28_8,Detached Shading:Fixed,0.20,0.20,0.00, N/A
ShadingProperty Reflectance,Mir-L_BLOCK28_8,Detached Shading:Fixed,0.20,0.20,0.00, N/A
ShadingProperty Reflectance,L_BLOCK28_9,Detached Shading:Fixed,0.20,0.20,0.00, N/A
ShadingProperty Reflectance,Mir-L_BLOCK28_9,Detached Shading:Fixed,0.20,0.20,0.00, N/A
ShadingProperty Reflectance,L_BLOCK28_10,Detached Shading:Fixed,0.20,0.20,0.00, N/A
ShadingProperty Reflectance,Mir-L_BLOCK28_10,Detached Shading:Fixed,0.20,0.20,0.00, N/A
ShadingProperty Reflectance,L_BLOCK28_11,Detached Shading:Fixed,0.20,0.20,0.00, N/A
ShadingProperty Reflectance,Mir-L_BLOCK28_11,Detached Shading:Fixed,0.20,0.20,0.00, N/A
ShadingProperty Reflectance,L_BLOCK28_12,Detached Shading:Fixed,0.20,0.20,0.00, N/A
ShadingProperty Reflectance,Mir-L_BLOCK28_12,Detached Shading:Fixed,0.20,0.20,0.00, N/A
ShadingProperty Reflectance,L_BLOCK28_13,Detached Shading:Fixed,0.20,0.20,0.00, N/A
ShadingProperty Reflectance,Mir-L_BLOCK28_13,Detached Shading:Fixed,0.20,0.20,0.00, N/A
ShadingProperty Reflectance,SHADING28,Detached Shading:Fixed,0.20,0.20,0.00, N/A
ShadingProperty Reflectance,Mir-SHADING28,Detached Shading:Fixed,0.20,0.20,0.00, N/A
ShadingProperty Reflectance,L_BLOCK29_1,Detached Shading:Fixed,0.20,0.20,0.00, N/A
ShadingProperty Reflectance,Mir-L_BLOCK29_1,Detached Shading:Fixed,0.20,0.20,0.00, N/A
ShadingProperty Reflectance,L_BLOCK29_2,Detached Shading:Fixed,0.20,0.20,0.00, N/A
ShadingProperty Reflectance,Mir-L_BLOCK29_2,Detached Shading:Fixed,0.20,0.20,0.00, N/A
ShadingProperty Reflectance,L_BLOCK29_3,Detached Shading:Fixed,0.20,0.20,0.00, N/A
ShadingProperty Reflectance,Mir-L_BLOCK29_3,Detached Shading:Fixed,0.20,0.20,0.00, N/A
ShadingProperty Reflectance,L_BLOCK29_4,Detached Shading:Fixed,0.20,0.20,0.00, N/A
ShadingProperty Reflectance,Mir-L_BLOCK29_4,Detached Shading:Fixed,0.20,0.20,0.00, N/A
ShadingProperty Reflectance,L_BLOCK29_5,Detached Shading:Fixed,0.20,0.20,0.00, N/A
ShadingProperty Reflectance,Mir-L_BLOCK29_5,Detached Shading:Fixed,0.20,0.20,0.00, N/A
ShadingProperty Reflectance,L_BLOCK29_6,Detached Shading:Fixed,0.20,0.20,0.00, N/A
ShadingProperty Reflectance,Mir-L_BLOCK29_6,Detached Shading:Fixed,0.20,0.20,0.00, N/A
ShadingProperty Reflectance,L_BLOCK29_7,Detached Shading:Fixed,0.20,0.20,0.00, N/A
ShadingProperty Reflectance,Mir-L_BLOCK29_7,Detached Shading:Fixed,0.20,0.20,0.00, N/A
ShadingProperty Reflectance,L_BLOCK29_8,Detached Shading:Fixed,0.20,0.20,0.00, N/A
ShadingProperty Reflectance,Mir-L_BLOCK29_8,Detached Shading:Fixed,0.20,0.20,0.00, N/A
ShadingProperty Reflectance,L_BLOCK29_9,Detached Shading:Fixed,0.20,0.20,0.00, N/A
ShadingProperty Reflectance,Mir-L_BLOCK29_9,Detached Shading:Fixed,0.20,0.20,0.00, N/A
ShadingProperty Reflectance,L_BLOCK29_10,Detached Shading:Fixed,0.20,0.20,0.00, N/A
ShadingProperty Reflectance,Mir-L_BLOCK29_10,Detached Shading:Fixed,0.20,0.20,0.00, N/A
ShadingProperty Reflectance,SHADING29,Detached Shading:Fixed,0.20,0.20,0.00, N/A
ShadingProperty Reflectance,Mir-SHADING29,Detached Shading:Fixed,0.20,0.20,0.00, N/A
ShadingProperty Reflectance,L_BLOCK30_1,Detached Shading:Fixed,0.20,0.20,0.00, N/A
ShadingProperty Reflectance,Mir-L_BLOCK30_1,Detached Shading:Fixed,0.20,0.20,0.00, N/A
ShadingProperty Reflectance,L_BLOCK30_2,Detached Shading:Fixed,0.20,0.20,0.00, N/A
ShadingProperty Reflectance,Mir-L_BLOCK30_2,Detached Shading:Fixed,0.20,0.20,0.00, N/A
ShadingProperty Reflectance,L_BLOCK30_3,Detached Shading:Fixed,0.20,0.20,0.00, N/A
ShadingProperty Reflectance,Mir-L_BLOCK30_3,Detached Shading:Fixed,0.20,0.20,0.00, N/A
ShadingProperty Reflectance,L_BLOCK30_4,Detached Shading:Fixed,0.20,0.20,0.00, N/A
ShadingProperty Reflectance,Mir-L_BLOCK30_4,Detached Shading:Fixed,0.20,0.20,0.00, N/A
ShadingProperty Reflectance,SHADING30,Detached Shading:Fixed,0.20,0.20,0.00, N/A
ShadingProperty Reflectance,Mir-SHADING30,Detached Shading:Fixed,0.20,0.20,0.00, N/A
ShadingProperty Reflectance,L_BLOCK31_1,Detached Shading:Fixed,0.20,0.20,0.00, N/A
ShadingProperty Reflectance,Mir-L_BLOCK31_1,Detached Shading:Fixed,0.20,0.20,0.00, N/A
ShadingProperty Reflectance,L_BLOCK31_2,Detached Shading:Fixed,0.20,0.20,0.00, N/A
ShadingProperty Reflectance,Mir-L_BLOCK31_2,Detached Shading:Fixed,0.20,0.20,0.00, N/A
ShadingProperty Reflectance,L_BLOCK31_3,Detached Shading:Fixed,0.20,0.20,0.00, N/A
ShadingProperty Reflectance,Mir-L_BLOCK31_3,Detached Shading:Fixed,0.20,0.20,0.00, N/A
ShadingProperty Reflectance,L_BLOCK31_4,Detached Shading:Fixed,0.20,0.20,0.00, N/A
ShadingProperty Reflectance,Mir-L_BLOCK31_4,Detached Shading:Fixed,0.20,0.20,0.00, N/A
ShadingProperty Reflectance,SHADING31,Detached Shading:Fixed,0.20,0.20,0.00, N/A
ShadingProperty Reflectance,Mir-SHADING31,Detached Shading:Fixed,0.20,0.20,0.00, N/A
ShadingProperty Reflectance,L_BLOCK32_1,Detached Shading:Fixed,0.20,0.20,0.00, N/A
ShadingProperty Reflectance,Mir-L_BLOCK32_1,Detached Shading:Fixed,0.20,0.20,0.00, N/A
ShadingProperty Reflectance,L_BLOCK32_2,Detached Shading:Fixed,0.20,0.20,0.00, N/A
ShadingProperty Reflectance,Mir-L_BLOCK32_2,Detached Shading:Fixed,0.20,0.20,0.00, N/A
ShadingProperty Reflectance,L_BLOCK32_3,Detached Shading:Fixed,0.20,0.20,0.00, N/A
ShadingProperty Reflectance,Mir-L_BLOCK32_3,Detached Shading:Fixed,0.20,0.20,0.00, N/A
ShadingProperty Reflectance,L_BLOCK32_4,Detached Shading:Fixed,0.20,0.20,0.00, N/A
ShadingProperty Reflectance,Mir-L_BLOCK32_4,Detached Shading:Fixed,0.20,0.20,0.00, N/A
ShadingProperty Reflectance,SHADING32,Detached Shading:Fixed,0.20,0.20,0.00, N/A
ShadingProperty Reflectance,Mir-SHADING32,Detached Shading:Fixed,0.20,0.20,0.00, N/A
ShadingProperty Reflectance,L_BLOCK33_1,Detached Shading:Fixed,0.20,0.20,0.00, N/A
ShadingProperty Reflectance,Mir-L_BLOCK33_1,Detached Shading:Fixed,0.20,0.20,0.00, N/A
ShadingProperty Reflectance,L_BLOCK33_2,Detached Shading:Fixed,0.20,0.20,0.00, N/A
ShadingProperty Reflectance,Mir-L_BLOCK33_2,Detached Shading:Fixed,0.20,0.20,0.00, N/A
ShadingProperty Reflectance,L_BLOCK33_3,Detached Shading:Fixed,0.20,0.20,0.00, N/A
ShadingProperty Reflectance,Mir-L_BLOCK33_3,Detached Shading:Fixed,0.20,0.20,0.00, N/A
ShadingProperty Reflectance,L_BLOCK33_4,Detached Shading:Fixed,0.20,0.20,0.00, N/A
ShadingProperty Reflectance,Mir-L_BLOCK33_4,Detached Shading:Fixed,0.20,0.20,0.00, N/A
ShadingProperty Reflectance,L_BLOCK33_5,Detached Shading:Fixed,0.20,0.20,0.00, N/A
ShadingProperty Reflectance,Mir-L_BLOCK33_5,Detached Shading:Fixed,0.20,0.20,0.00, N/A
ShadingProperty Reflectance,L_BLOCK33_6,Detached Shading:Fixed,0.20,0.20,0.00, N/A
ShadingProperty Reflectance,Mir-L_BLOCK33_6,Detached Shading:Fixed,0.20,0.20,0.00, N/A
ShadingProperty Reflectance,L_BLOCK33_7,Detached Shading:Fixed,0.20,0.20,0.00, N/A
ShadingProperty Reflectance,Mir-L_BLOCK33_7,Detached Shading:Fixed,0.20,0.20,0.00, N/A
ShadingProperty Reflectance,L_BLOCK33_8,Detached Shading:Fixed,0.20,0.20,0.00, N/A
ShadingProperty Reflectance,Mir-L_BLOCK33_8,Detached Shading:Fixed,0.20,0.20,0.00, N/A
ShadingProperty Reflectance,SHADING33,Detached Shading:Fixed,0.20,0.20,0.00, N/A
ShadingProperty Reflectance,Mir-SHADING33,Detached Shading:Fixed,0.20,0.20,0.00, N/A
ShadingProperty Reflectance,L_BLOCK34_1,Detached Shading:Fixed,0.20,0.20,0.00, N/A
ShadingProperty Reflectance,Mir-L_BLOCK34_1,Detached Shading:Fixed,0.20,0.20,0.00, N/A
ShadingProperty Reflectance,L_BLOCK34_2,Detached Shading:Fixed,0.20,0.20,0.00, N/A
ShadingProperty Reflectance,Mir-L_BLOCK34_2,Detached Shading:Fixed,0.20,0.20,0.00, N/A
ShadingProperty Reflectance,L_BLOCK34_3,Detached Shading:Fixed,0.20,0.20,0.00, N/A
ShadingProperty Reflectance,Mir-L_BLOCK34_3,Detached Shading:Fixed,0.20,0.20,0.00, N/A
ShadingProperty Reflectance,L_BLOCK34_4,Detached Shading:Fixed,0.20,0.20,0.00, N/A
ShadingProperty Reflectance,Mir-L_BLOCK34_4,Detached Shading:Fixed,0.20,0.20,0.00, N/A
ShadingProperty Reflectance,L_BLOCK34_5,Detached Shading:Fixed,0.20,0.20,0.00, N/A
ShadingProperty Reflectance,Mir-L_BLOCK34_5,Detached Shading:Fixed,0.20,0.20,0.00, N/A
ShadingProperty Reflectance,L_BLOCK34_6,Detached Shading:Fixed,0.20,0.20,0.00, N/A
ShadingProperty Reflectance,Mir-L_BLOCK34_6,Detached Shading:Fixed,0.20,0.20,0.00, N/A
ShadingProperty Reflectance,SHADING34,Detached Shading:Fixed,0.20,0.20,0.00, N/A
ShadingProperty Reflectance,Mir-SHADING34,Detached Shading:Fixed,0.20,0.20,0.00, N/A
ShadingProperty Reflectance,L_BLOCK35_1,Detached Shading:Fixed,0.20,0.20,0.00, N/A
ShadingProperty Reflectance,Mir-L_BLOCK35_1,Detached Shading:Fixed,0.20,0.20,0.00, N/A
ShadingProperty Reflectance,L_BLOCK35_2,Detached Shading:Fixed,0.20,0.20,0.00, N/A
ShadingProperty Reflectance,Mir-L_BLOCK35_2,Detached Shading:Fixed,0.20,0.20,0.00, N/A
ShadingProperty Reflectance,L_BLOCK35_3,Detached Shading:Fixed,0.20,0.20,0.00, N/A
ShadingProperty Reflectance,Mir-L_BLOCK35_3,Detached Shading:Fixed,0.20,0.20,0.00, N/A
ShadingProperty Reflectance,L_BLOCK35_4,Detached Shading:Fixed,0.20,0.20,0.00, N/A
ShadingProperty Reflectance,Mir-L_BLOCK35_4,Detached Shading:Fixed,0.20,0.20,0.00, N/A
ShadingProperty Reflectance,SHADING35,Detached Shading:Fixed,0.20,0.20,0.00, N/A
ShadingProperty Reflectance,Mir-SHADING35,Detached Shading:Fixed,0.20,0.20,0.00, N/A
ShadingProperty Reflectance,L_BLOCK36_1,Detached Shading:Fixed,0.20,0.20,0.00, N/A
ShadingProperty Reflectance,Mir-L_BLOCK36_1,Detached Shading:Fixed,0.20,0.20,0.00, N/A
ShadingProperty Reflectance,L_BLOCK36_2,Detached Shading:Fixed,0.20,0.20,0.00, N/A
ShadingProperty Reflectance,Mir-L_BLOCK36_2,Detached Shading:Fixed,0.20,0.20,0.00, N/A
ShadingProperty Reflectance,L_BLOCK36_3,Detached Shading:Fixed,0.20,0.20,0.00, N/A
ShadingProperty Reflectance,Mir-L_BLOCK36_3,Detached Shading:Fixed,0.20,0.20,0.00, N/A
ShadingProperty Reflectance,L_BLOCK36_4,Detached Shading:Fixed,0.20,0.20,0.00, N/A
ShadingProperty Reflectance,Mir-L_BLOCK36_4,Detached Shading:Fixed,0.20,0.20,0.00, N/A
ShadingProperty Reflectance,SHADING36,Detached Shading:Fixed,0.20,0.20,0.00, N/A
ShadingProperty Reflectance,Mir-SHADING36,Detached Shading:Fixed,0.20,0.20,0.00, N/A
ShadingProperty Reflectance,L_BLOCK37_1,Detached Shading:Fixed,0.20,0.20,0.00, N/A
ShadingProperty Reflectance,Mir-L_BLOCK37_1,Detached Shading:Fixed,0.20,0.20,0.00, N/A
[...]
HeatTransfer Surface,BLOCK COMUN1_4 STOREY 0 WALL 0006,Wall,,CTF - ConductionTransferFunction,PROJECT PARTITION,1.000,0.870,,8.34,8.34,8.34,180.00,90.00,3.00,2.78,0.00,BLOCK COMERCIO1_0 STOREY 0 WALL 0004,Other/Same Surface Int Conv,ASHRAETARP,NoSun,NoWind,0.50,0.50,0.50,0.50,4
HeatTransfer Surface,BLOCK COMUN1_4 STOREY 0 FLOOR 0001,Floor,,CTF - ConductionTransferFunction,PROJECT FLOOR,1.000,0.804,,9.99,9.99,9.99,270.00,180.00,3.16,3.16,0.00,Ground,N/A-Ground,ASHRAETARP,NoSun,NoWind,1.00,0.00,1.00,0.00,6
HeatTransfer Surface,BLOCK COMUN1_4 STOREY 0 ROOF 0001,Roof,,CTF - ConductionTransferFunction,PROJECT FLAT ROOF,1.000,0.841,,9.99,9.99,9.99,90.02,0.00,3.16,3.16,0.00,ExternalEnvironment,DOE-2,ASHRAETARP,SunExposed,WindExposed,0.00,1.00,0.97,2.51E-002,6
Zone Surfaces,COMUN1_5,6
HeatTransfer Surface,BLOCK COMUN1_5 STOREY 0 WALL 0001,Wall,,CTF - ConductionTransferFunction,PROJECT PARTITION,1.000,0.870,,5.46,5.46,5.46,90.02,90.00,3.00,1.82,0.00,BLOCK COMUN1_7 STOREY 0 WALL 0009,Other/Same Surface Int Conv,ASHRAETARP,NoSun,NoWind,0.50,0.50,0.50,0.50,4
HeatTransfer Surface,BLOCK COMUN1_5 STOREY 0 WALL 0002,Wall,,CTF - ConductionTransferFunction,PROJECT PARTITION,1.000,0.870,,4.20,4.20,4.20,1.83E-006,90.00,3.00,1.40,0.00,BLOCK COMUN1_6 STOREY 0 WALL 0006,Other/Same Surface Int Conv,ASHRAETARP,NoSun,NoWind,0.50,0.50,0.50,0.50,4
HeatTransfer Surface,BLOCK COMUN1_5 STOREY 0 WALL 0003,Wall,,CTF - ConductionTransferFunction,PROJECT PARTITION,1.000,0.870,,5.46,5.46,5.46,270.02,90.00,3.00,1.82,0.00,BLOCK COMUN1_4 STOREY 0 WALL 0001,Other/Same Surface Int Conv,ASHRAETARP,NoSun,NoWind,0.50,0.50,0.50,0.50,4
HeatTransfer Surface,BLOCK COMUN1_5 STOREY 0 WALL 0004,Wall,,CTF - ConductionTransferFunction,PROJECT PARTITION,1.000,0.870,,4.20,4.20,4.20,180.00,90.00,3.00,1.40,0.00,BLOCK COMERCIO1_0 STOREY 0 WALL 0003,Other/Same Surface Int Conv,ASHRAETARP,NoSun,NoWind,0.50,0.50,0.50,0.50,4
HeatTransfer Surface,BLOCK COMUN1_5 STOREY 0 FLOOR 0001,Floor,,CTF - ConductionTransferFunction,PROJECT FLOOR,1.000,0.804,,2.55,2.55,2.55,270.02,180.00,1.82,1.40,0.00,Ground,N/A-Ground,ASHRAETARP,NoSun,NoWind,1.00,0.00,1.00,0.00,4
HeatTransfer Surface,BLOCK COMUN1_5 STOREY 0 ROOF 0001,Roof,,CTF - ConductionTransferFunction,PROJECT FLAT ROOF,1.000,0.841,,2.55,2.55,2.55,90.02,0.00,1.82,1.40,0.00,ExternalEnvironment,DOE-2,ASHRAETARP,SunExposed,WindExposed,0.00,1.00,1.00,5.57E-004,4
Zone Surfaces,COMUN1_6,8
HeatTransfer Surface,BLOCK COMUN1_6 STOREY 0 WALL 0001,Wall,,CTF - ConductionTransferFunction,PROJECT PARTITION,1.000,0.870,,0.36,0.36,0.36,90.00,90.00,3.00,0.12,0.00,BLOCK COMUN1_7 STOREY 0 WALL 0008,Other/Same Surface Int Conv,ASHRAETARP,NoSun,NoWind,0.50,0.50,0.50,0.50,4
HeatTransfer Surface,BLOCK COMUN1_6 STOREY 0 WALL 0002,Wall,,CTF - ConductionTransferFunction,PROJECT PARTITION,1.000,0.870,,3.03,3.03,3.03,90.00,90.00,3.00,1.01,0.00,BLOCK COMUN1_1 STOREY 0 WALL 0004,Other/Same Surface Int Conv,ASHRAETARP,NoSun,NoWind,0.50,0.50,0.50,0.50,4
HeatTransfer Surface,BLOCK COMUN1_6 STOREY 0 WALL 0003,Wall,,CTF - ConductionTransferFunction,PROJECT PARTITION,1.000,0.870,,1.92,1.92,1.92,90.00,90.00,3.00,0.64,0.00,BLOCK COMUN1_1 STOREY 0 WALL 0003,Other/Same Surface Int Conv,ASHRAETARP,NoSun,NoWind,0.50,0.50,0.50,0.50,4
HeatTransfer Surface,BLOCK COMUN1_6 STOREY 0 WALL 0004,Wall,,CTF - ConductionTransferFunction,PROJECT PARTITION,1.000,0.870,,4.20,4.20,4.20,1.94E-006,90.00,3.00,1.40,0.00,BLOCK COMUN1_1 STOREY 0 WALL 0002,Other/Same Surface Int Conv,ASHRAETARP,NoSun,NoWind,0.50,0.50,0.50,0.50,4
HeatTransfer Surface,BLOCK COMUN1_6 STOREY 0 WALL 0005,Wall,,CTF - ConductionTransferFunction,PROJECT PARTITION,1.000,0.870,,5.31,5.31,5.31,270.00,90.00,3.00,1.77,0.00,BLOCK COMUN1_4 STOREY 0 WALL 0002,Other/Same Surface Int Conv,ASHRAETARP,NoSun,NoWind,0.50,0.50,0.50,0.50,4
HeatTransfer Surface,BLOCK COMUN1_6 STOREY 0 WALL 0006,Wall,,CTF - ConductionTransferFunction,PROJECT PARTITION,1.000,0.870,,4.20,4.20,4.20,180.00,90.00,3.00,1.40,0.00,BLOCK COMUN1_5 STOREY 0 WALL 0002,Other/Same Surface Int Conv,ASHRAETARP,NoSun,NoWind,0.50,0.50,0.50,0.50,4
HeatTransfer Surface,BLOCK COMUN1_6 STOREY 0 FLOOR 0001,Floor,,CTF - ConductionTransferFunction,PROJECT FLOOR,1.000,0.804,,2.48,2.48,2.48,270.00,180.00,1.77,1.40,0.00,Ground,N/A-Ground,ASHRAETARP,NoSun,NoWind,1.00,0.00,1.00,0.00,4
HeatTransfer Surface,BLOCK COMUN1_6 STOREY 0 ROOF 0001,Roof,,CTF - ConductionTransferFunction,PROJECT FLAT ROOF,1.000,0.841,,2.48,2.48,2.48,90.00,0.00,1.77,1.40,0.00,ExternalEnvironment,DOE-2,ASHRAETARP,SunExposed,WindExposed,0.00,1.00,0.99,1.05E-002,4
Zone Surfaces,COMUN1_7,13
HeatTransfer Surface,BLOCK COMUN1_7 STOREY 0 WALL 0001,Wall,,CTF - ConductionTransferFunction,PROJECT PARTITION,1.000,0.870,,2.68,2.68,2.68,227.73,90.00,3.00,0.89,0.00,BLOCK COMERCIO1_0 STOREY 0 WALL 0002,Other/Same Surface Int Conv,ASHRAETARP,NoSun,NoWind,0.50,0.50,0.50,0.50,4
HeatTransfer Surface,BLOCK COMUN1_7 STOREY 0 WALL 0002,Wall,,CTF - ConductionTransferFunction,PROJECT PARTITION,1.000,0.870,,3.72,3.72,3.72,227.29,90.00,3.00,1.24,0.00,BLOCK COMERCIO1_2 STOREY 0 WALL 0007,Other/Same Surface Int Conv,ASHRAETARP,NoSun,NoWind,0.50,0.50,0.50,0.50,4
HeatTransfer Surface,BLOCK COMUN1_7 STOREY 0 WALL 0003,Wall,,CTF - ConductionTransferFunction,PROJECT PARTITION,1.000,0.870,,13.57,13.57,13.57,139.31,90.00,3.00,4.52,0.00,BLOCK COMERCIO1_3 STOREY 0 WALL 0007,Other/Same Surface Int Conv,ASHRAETARP,NoSun,NoWind,0.50,0.50,0.50,0.50,4
HeatTransfer Surface,BLOCK COMUN1_7 STOREY 0 WALL 0004,Wall,,CTF - ConductionTransferFunction,PROJECT PARTITION,1.000,0.870,,0.20,0.25,0.20,135.00,90.00,3.00,8.49E-002,0.00,ExternalEnvironment,DOE-2,ASHRAETARP,SunExposed,WindExposed,0.50,0.50,1.00,1.11E-003,4
HeatTransfer Surface,BLOCK COMUN1_7 STOREY 0 WALL 0004 WINDOW,Window,BLOCK COMUN1_7 STOREY 0 WALL 0004,Window5 Detailed Fenestration,PROJECT EXTERNAL WINDOW,N/A,2.703,No,5.09E-002,5.09E-002,5.09E-002,135.00,90.00,8.48E-002,0.60,0.00,ExternalEnvironment,DOE-2,ASHRAETARP,SunExposed,WindExposed,0.50,0.50,0.99,1.28E-002,4
HeatTransfer Surface,BLOCK COMUN1_7 STOREY 0 WALL 0005,Wall,,CTF - ConductionTransferFunction,PROJECT PARTITION,1.000,0.870,,1.02,1.27,1.02,98.13,90.00,3.00,0.42,0.00,ExternalEnvironment,DOE-2,ASHRAETARP,SunExposed,WindExposed,0.50,0.50,1.00,0.00,4
HeatTransfer Surface,BLOCK COMUN1_7 STOREY 0 WALL 0005 WINDOW,Window,BLOCK COMUN1_7 STOREY 0 WALL 0005,Window5 Detailed Fenestration,PROJECT EXTERNAL WINDOW,N/A,2.703,No,0.25,0.25,0.25,98.13,90.00,0.42,0.60,0.00,ExternalEnvironment,DOE-2,ASHRAETARP,SunExposed,WindExposed,0.50,0.50,0.99,7.34E-003,4
HeatTransfer Surface,BLOCK COMUN1_7 STOREY 0 WALL 0006,Wall,,CTF - ConductionTransferFunction,PROJECT PARTITION,1.000,0.870,,9.96,9.96,9.96,0.86,90.00,3.00,3.32,0.00,BLOCK COMUN1_8 STOREY 0 WALL 0001,Other/Same Surface Int Conv,ASHRAETARP,NoSun,NoWind,0.50,0.50,0.50,0.50,4
HeatTransfer Surface,BLOCK COMUN1_7 STOREY 0 WALL 0007,Wall,,CTF - ConductionTransferFunction,PROJECT PARTITION,1.000,0.870,,5.01,5.01,5.01,1.03,90.00,3.00,1.67,0.00,BLOCK COMUN1_1 STOREY 0 WALL 0005,Other/Same Surface Int Conv,ASHRAETARP,NoSun,NoWind,0.50,0.50,0.50,0.50,4
HeatTransfer Surface,BLOCK COMUN1_7 STOREY 0 WALL 0008,Wall,,CTF - ConductionTransferFunction,PROJECT PARTITION,1.000,0.870,,0.36,0.36,0.36,270.00,90.00,3.00,0.12,0.00,BLOCK COMUN1_6 STOREY 0 WALL 0001,Other/Same Surface Int Conv,ASHRAETARP,NoSun,NoWind,0.50,0.50,0.50,0.50,4
HeatTransfer Surface,BLOCK COMUN1_7 STOREY 0 WALL 0009,Wall,,CTF - ConductionTransferFunction,PROJECT PARTITION,1.000,0.870,,5.46,5.46,5.46,270.02,90.00,3.00,1.82,0.00,BLOCK COMUN1_5 STOREY 0 WALL 0001,Other/Same Surface Int Conv,ASHRAETARP,NoSun,NoWind,0.50,0.50,0.50,0.50,4
HeatTransfer Surface,BLOCK COMUN1_7 STOREY 0 FLOOR 0001,Floor,,CTF - ConductionTransferFunction,PROJECT FLOOR,1.000,0.804,,10.75,10.75,10.75,278.13,180.00,3.28,3.28,0.00,Ground,N/A-Ground,ASHRAETARP,NoSun,NoWind,1.00,0.00,1.00,0.00,9
HeatTransfer Surface,BLOCK COMUN1_7 STOREY 0 ROOF 0001,Roof,,CTF - ConductionTransferFunction,PROJECT FLAT ROOF,1.000,0.841,,10.75,10.75,10.75,135.00,0.00,3.28,3.28,0.00,ExternalEnvironment,DOE-2,ASHRAETARP,SunExposed,WindExposed,0.00,1.00,0.90,9.69E-002,9
Zone Surfaces,COMUN1_8,10
HeatTransfer Surface,BLOCK COMUN1_8 STOREY 0 WALL 0001,Wall,,CTF - ConductionTransferFunction,PROJECT PARTITION,1.000,0.870,,9.96,9.96,9.96,180.86,90.00,3.00,3.32,0.00,BLOCK COMUN1_7 STOREY 0 WALL 0006,Other/Same Surface Int Conv,ASHRAETARP,NoSun,NoWind,0.50,0.50,0.50,0.50,4
HeatTransfer Surface,BLOCK COMUN1_8 STOREY 0 WALL 0002,Wall,,CTF - ConductionTransferFunction,PROJECT PARTITION,1.000,0.870,,7.48,9.35,7.48,98.86,90.00,3.00,3.12,0.00,ExternalEnvironment,DOE-2,ASHRAETARP,SunExposed,WindExposed,0.50,0.50,1.00,0.00,4
HeatTransfer Surface,BLOCK COMUN1_8 STOREY 0 WALL 0002 WINDOW,Window,BLOCK COMUN1_8 STOREY 0 WALL 0002,Window5 Detailed Fenestration,PROJECT EXTERNAL WINDOW,N/A,2.703,No,1.87,1.87,1.87,98.86,90.00,3.11,0.60,0.00,ExternalEnvironment,DOE-2,ASHRAETARP,SunExposed,WindExposed,0.50,0.50,0.94,5.53E-002,4
HeatTransfer Surface,BLOCK COMUN1_8 STOREY 0 WALL 0003,Wall,,CTF - ConductionTransferFunction,PROJECT PARTITION,1.000,0.870,,2.49,2.49,2.49,8.33,90.00,3.00,0.83,0.00,ExternalEnvironment,DOE-2,ASHRAETARP,SunExposed,WindExposed,0.50,0.50,0.97,3.29E-002,4
HeatTransfer Surface,BLOCK COMUN1_8 STOREY 0 WALL 0004,Wall,,CTF - ConductionTransferFunction,PROJECT PARTITION,1.000,0.870,,8.81,8.81,8.81,9.01,90.00,3.00,2.94,0.00,ExternalEnvironment,DOE-2,ASHRAETARP,SunExposed,WindExposed,0.50,0.50,0.96,3.70E-002,4
HeatTransfer Surface,BLOCK COMUN1_8 STOREY 0 WALL 0005,Wall,,CTF - ConductionTransferFunction,PROJECT PARTITION,1.000,0.870,,0.17,0.21,0.17,8.13,90.00,3.00,7.07E-002,0.00,ExternalEnvironment,DOE-2,ASHRAETARP,SunExposed,WindExposed,0.50,0.50,1.00,4.21E-004,4
HeatTransfer Surface,BLOCK COMUN1_8 STOREY 0 WALL 0005 WINDOW,Window,BLOCK COMUN1_8 STOREY 0 WALL 0005,Window5 Detailed Fenestration,PROJECT EXTERNAL WINDOW,N/A,2.703,No,4.24E-002,4.24E-002,4.24E-002,8.13,90.00,7.06E-002,0.60,0.00,ExternalEnvironment,DOE-2,ASHRAETARP,SunExposed,WindExposed,0.50,0.50,0.95,5.12E-002,4
HeatTransfer Surface,BLOCK COMUN1_8 STOREY 0 WALL 0006,Wall,,CTF - ConductionTransferFunction,PROJECT PARTITION,1.000,0.870,,10.86,10.86,10.86,270.16,90.00,3.00,3.62,0.00,BLOCK COMUN1_1 STOREY 0 WALL 0006,Other/Same Surface Int Conv,ASHRAETARP,NoSun,NoWind,0.50,0.50,0.50,0.50,4
HeatTransfer Surface,BLOCK COMUN1_8 STOREY 0 FLOOR 0001,Floor,,CTF - ConductionTransferFunction,PROJECT FLOOR,1.000,0.804,,11.97,11.97,11.97,278.86,180.00,3.46,3.46,0.00,Ground,N/A-Ground,ASHRAETARP,NoSun,NoWind,1.00,0.00,1.00,0.00,6
HeatTransfer Surface,BLOCK COMUN1_8 STOREY 0 ROOF 0001,Roof,,CTF - ConductionTransferFunction,PROJECT FLAT ROOF,1.000,0.841,,11.97,11.97,11.97,98.86,0.00,3.46,3.46,0.00,ExternalEnvironment,DOE-2,ASHRAETARP,SunExposed,WindExposed,0.00,1.00,0.88,0.12,6
! <Environment>,Environment Name,Environment Type, Start Date, End Date, Start DayOfWeek, Duration {#days}, Source:Start DayOfWeek,  Use Daylight Saving, Use Holidays, Apply Weekend Holiday Rule,  Use Rain Values, Use Snow Values
! <Environment:Special Days>, Special Day Name, Special Day Type, Source, Start Date, Duration {#days}
! <Environment:Daylight Saving>, Daylight Saving Indicator, Source, Start Date, End Date
! <Environment:WarmupDays>, NumberofWarmupDays
Environment,CUSTOMRUN,WeatherFileRunPeriod,01/01,12/31,Sunday,365,UseWeatherFile,Yes,Yes,No,Yes,Yes
Environment:Daylight Saving,No,
Environment:WarmupDays,  6
! <Warmup Convergence Information>,Zone Name,Environment Type/Name,Average Warmup Temperature Difference {deltaC},Std Dev Warmup Temperature Difference {deltaC},Max Temperature Pass/Fail Convergence,Min Temperature Pass/Fail Convergence,Average Warmup Load Difference {W},Std Dev Warmup Load Difference {W},Heating Load Pass/Fail Convergence,Cooling Load Pass/Fail Convergence
 Warmup Convergence Information,VIVIENDA10_0,RunPeriod: CUSTOMRUN,5.9705327102E-014,6.0805855858E-014,Pass,Pass,1.7557654571E-002,3.6552403934E-002,Pass,Pass
 Warmup Convergence Information,COMUN10_1,RunPeriod: CUSTOMRUN,5.3562093032E-014,4.5610130810E-014,Pass,Pass,1.9812902447E-002,1.7154080289E-002,Pass,Pass
 Warmup Convergence Information,COMUN10_2,RunPeriod: CUSTOMRUN,1.5123704758E-014,1.4934118637E-014,Pass,Pass,2.9649135484E-002,2.6688965642E-002,Pass,Pass
 Warmup Convergence Information,VIVIENDA9_0,RunPeriod: CUSTOMRUN,6.4738338147E-014,6.0658886213E-014,Pass,Pass,1.7766994315E-002,3.5299455855E-002,Pass,Pass
 Warmup Convergence Information,VIVIENDA9_1,RunPeriod: CUSTOMRUN,7.5421150806E-014,6.9342056987E-014,Pass,Pass,1.6160518108E-002,3.5529216539E-002,Pass,Pass
 Warmup Convergence Information,COMUN9_2,RunPeriod: CUSTOMRUN,4.2225482370E-014,3.5894521313E-014,Pass,Pass,1.7563331122E-002,2.8109102953E-002,Pass,Pass
 Warmup Convergence Information,COMUN9_3,RunPeriod: CUSTOMRUN,1.0917193075E-014,1.1013986900E-014,Pass,Pass,2.7774737730E-002,2.5479503351E-002,Pass,Pass
 Warmup Convergence Information,VIVIENDA8_0,RunPeriod: CUSTOMRUN,5.7682254035E-014,5.7097256790E-014,Pass,Pass,1.8052661349E-002,4.7236778331E-002,Pass,Pass
 Warmup Convergence Information,VIVIENDA8_1,RunPeriod: CUSTOMRUN,5.5017718776E-014,5.9517506958E-014,Pass,Pass,2.1040867503E-002,3.9509059513E-002,Pass,Pass
 Warmup Convergence Information,VIVIENDA8_2,RunPeriod: CUSTOMRUN,6.7896305862E-014,5.8812512222E-014,Pass,Pass,1.8898471404E-002,4.3021258842E-002,Pass,Pass
 Warmup Convergence Information,COMUN8_3,RunPeriod: CUSTOMRUN,4.4063518266E-014,3.7389321324E-014,Pass,Pass,1.3486928139E-002,2.0725385550E-002,Pass,Pass
 Warmup Convergence Information,COMUN8_4,RunPeriod: CUSTOMRUN,1.0214051827E-014,9.7867697212E-015,Pass,Pass,3.3520061697E-002,3.1250649787E-002,Pass,Pass
 Warmup Convergence Information,VIVIENDA7_0,RunPeriod: CUSTOMRUN,5.3710122769E-014,5.5879994701E-014,Pass,Pass,1.8009114935E-002,4.7157990916E-002,Pass,Pass
 Warmup Convergence Information,VIVIENDA7_1,RunPeriod: CUSTOMRUN,5.9902700084E-014,5.5153918989E-014,Pass,Pass,2.0777336703E-002,3.9483777911E-002,Pass,Pass
 Warmup Convergence Information,VIVIENDA7_2,RunPeriod: CUSTOMRUN,5.8965178419E-014,6.1799632646E-014,Pass,Pass,1.8424654515E-002,4.2325755250E-002,Pass,Pass
 Warmup Convergence Information,COMUN7_3,RunPeriod: CUSTOMRUN,4.2817601316E-014,3.7795281406E-014,Pass,Pass,1.4166307996E-002,2.2483999485E-002,Pass,Pass
 Warmup Convergence Information,COMUN7_4,RunPeriod: CUSTOMRUN,8.0182774001E-015,8.2046037010E-015,Pass,Pass,3.3470849041E-002,2.9599443274E-002,Pass,Pass
 Warmup Convergence Information,VIVIENDA6_0,RunPeriod: CUSTOMRUN,5.9705327102E-014,4.8901421784E-014,Pass,Pass,1.8093202438E-002,4.7003594065E-002,Pass,Pass
 Warmup Convergence Information,VIVIENDA6_1,RunPeriod: CUSTOMRUN,6.0396132540E-014,5.4450802443E-014,Pass,Pass,2.1800885724E-002,3.9684273393E-002,Pass,Pass
 Warmup Convergence Information,VIVIENDA6_2,RunPeriod: CUSTOMRUN,7.4927718351E-014,6.8925180134E-014,Pass,Pass,1.7220323201E-002,4.0131361329E-002,Pass,Pass
 Warmup Convergence Information,COMUN6_3,RunPeriod: CUSTOMRUN,3.7451523364E-014,3.1986414011E-014,Pass,Pass,2.0196319901E-002,3.3032123266E-002,Pass,Pass
 Warmup Convergence Information,COMUN6_4,RunPeriod: CUSTOMRUN,7.2287854714E-015,6.9987006016E-015,Pass,Pass,3.6566726158E-002,3.3085995240E-002,Pass,Pass
 Warmup Convergence Information,VIVIENDA5_0,RunPeriod: CUSTOMRUN,5.0576826677E-014,4.6506761497E-014,Pass,Pass,1.7811039407E-002,4.6275377740E-002,Pass,Pass
 Warmup Convergence Information,VIVIENDA5_1,RunPeriod: CUSTOMRUN,6.3406070517E-014,5.5561962485E-014,Pass,Pass,2.0889741952E-002,3.9655314648E-002,Pass,Pass
 Warmup Convergence Information,VIVIENDA5_2,RunPeriod: CUSTOMRUN,7.2633257433E-014,6.4073149580E-014,Pass,Pass,1.5210423302E-002,3.7113591165E-002,Pass,Pass
 Warmup Convergence Information,COMUN5_3,RunPeriod: CUSTOMRUN,4.4803666949E-014,3.4714437371E-014,Pass,Pass,1.7747249663E-002,3.0068307420E-002,Pass,Pass
 Warmup Convergence Information,COMUN5_4,RunPeriod: CUSTOMRUN,8.8324409515E-015,7.6774347999E-015,Pass,Pass,3.0574231460E-002,2.7207747842E-002,Pass,Pass
 Warmup Convergence Information,VIVIENDA4_0,RunPeriod: CUSTOMRUN,5.8027656754E-014,5.5197428549E-014,Pass,Pass,1.7482029789E-002,4.5420905932E-002,Pass,Pass
 Warmup Convergence Information,VIVIENDA4_1,RunPeriod: CUSTOMRUN,7.1621720900E-014,5.8731309725E-014,Pass,Pass,2.0297110160E-002,3.8369737788E-002,Pass,Pass
 Warmup Convergence Information,VIVIENDA4_2,RunPeriod: CUSTOMRUN,6.2542563721E-014,5.7347291218E-014,Pass,Pass,1.4436434757E-002,3.5505381247E-002,Pass,Pass
 Warmup Convergence Information,COMUN4_3,RunPeriod: CUSTOMRUN,4.2065116822E-014,3.5679559714E-014,Pass,Pass,1.4747922424E-002,2.4153726708E-002,Pass,Pass
 Warmup Convergence Information,COMUN4_4,RunPeriod: CUSTOMRUN,6.6983455819E-015,6.5089964588E-015,Pass,Pass,3.0800956903E-002,2.7248048576E-002,Pass,Pass
 Warmup Convergence Information,VIVIENDA3_0,RunPeriod: CUSTOMRUN,5.8965178419E-014,5.2705770085E-014,Pass,Pass,1.7367854592E-002,4.5257158202E-002,Pass,Pass
 Warmup Convergence Information,VIVIENDA3_1,RunPeriod: CUSTOMRUN,5.8274372981E-014,5.3586469322E-014,Pass,Pass,2.1646396040E-002,3.8733334559E-002,Pass,Pass
 Warmup Convergence Information,VIVIENDA3_2,RunPeriod: CUSTOMRUN,6.8217036958E-014,6.7298140830E-014,Pass,Pass,1.4434518715E-002,3.5309966161E-002,Pass,Pass
 Warmup Convergence Information,COMUN3_3,RunPeriod: CUSTOMRUN,4.3570085811E-014,3.6956443901E-014,Pass,Pass,1.2469929730E-002,1.8960976209E-002,Pass,Pass
 Warmup Convergence Information,COMUN3_4,RunPeriod: CUSTOMRUN,7.0190766779E-015,6.3336313211E-015,Pass,Pass,3.2174440961E-002,2.9026337734E-002,Pass,Pass
 Warmup Convergence Information,VIVIENDA2_0,RunPeriod: CUSTOMRUN,5.2871287595E-014,5.0490938626E-014,Pass,Pass,1.7689499704E-002,4.4216520370E-002,Pass,Pass
 Warmup Convergence Information,VIVIENDA2_1,RunPeriod: CUSTOMRUN,6.1259639337E-014,5.6933162790E-014,Pass,Pass,1.9732794675E-002,3.7508846671E-002,Pass,Pass
 Warmup Convergence Information,VIVIENDA2_2,RunPeriod: CUSTOMRUN,5.8200358113E-014,5.9682236319E-014,Pass,Pass,1.5170578044E-002,3.5383458759E-002,Pass,Pass
 Warmup Convergence Information,COMUN2_3,RunPeriod: CUSTOMRUN,1.6566994690E-014,1.4850016572E-014,Pass,Pass,1.8871091354E-002,1.7179019777E-002,Pass,Pass
 Warmup Convergence Information,COMERCIO1_0,RunPeriod: CUSTOMRUN,7.8463036462E-002,0.4995205812,Pass,Pass,0.3419572738,1.4345278417,Pass,Pass
 Warmup Convergence Information,COMUN1_1,RunPeriod: CUSTOMRUN,1.4691951359E-014,1.3755170929E-014,Pass,Pass,1.6571746924E-002,1.2982446245E-002,Pass,Pass
 Warmup Convergence Information,COMERCIO1_2,RunPeriod: CUSTOMRUN,7.8141745599E-002,0.4977054396,Pass,Pass,0.2278320102,0.7496432825,Pass,Pass
 Warmup Convergence Information,COMERCIO1_3,RunPeriod: CUSTOMRUN,7.7539067545E-002,0.5013318478,Pass,Pass,0.3897280472,1.4616233275,Pass,Pass
 Warmup Convergence Information,COMUN1_4,RunPeriod: CUSTOMRUN,5.7024755228E-003,1.1979741732E-002,Pass,Pass,3.0845208305E-002,2.1030048067E-002,Pass,Pass
 Warmup Convergence Information,COMUN1_5,RunPeriod: CUSTOMRUN,2.6987728104E-003,7.0602014480E-003,Pass,Pass,3.2700653288E-002,2.0498797820E-002,Pass,Pass
 Warmup Convergence Information,COMUN1_6,RunPeriod: CUSTOMRUN,2.2944609176E-015,1.9846476577E-015,Pass,Pass,4.8262570422E-002,5.5551806377E-002,Pass,Pass
 Warmup Convergence Information,COMUN1_7,RunPeriod: CUSTOMRUN,2.2914071132E-003,6.8402974172E-003,Pass,Pass,0.2284394403,1.2155487675,Pass,Pass
 Warmup Convergence Information,COMUN1_8,RunPeriod: CUSTOMRUN,2.1131244902E-014,1.5704718519E-014,Pass,Pass,0.1230729266,0.8495833323,Pass,Pass
! <Program Control Information:Threads/Parallel Sims>, Threading Supported,Maximum Number of Threads, Env Set Threads (OMP_NUM_THREADS), EP Env Set Threads (EP_OMP_NUM_THREADS), IDF Set Threads, Number of Threads Used (Interior Radiant Exchange), Number Nominal Surfaces, Number Parallel Sims
Program Control:Threads/Parallel Sims, No,1, N/A, N/A, N/A, N/A, N/A, N/A
End of Data
