Program Version,EnergyPlus, Version 8.8.0-7c3bbe4830, YMD=2019.09.30 17:09,IDD_Version 8.8.0
