Program Version,EnergyPlus, Version 9.0.1-bb7ca4f0da, YMD=2019.07.04 22:50
